* 128-stage DFF chain - Generated from dff1.cir

* Models
.model nmos nmos (level=14 version=4.8.2)
.model pmos pmos (level=14 version=4.8.2)

.param VDD=1.8
.param period = 1ns

* Simulation flags
.options acct
.options num_threads=64
.sparse

VVDD VDD 0 DC {VDD}
VDIN DIN 0 PULSE (0 {VDD} {period*0.25} 1p 1p {period} {period*2})
VCLK CLK 0 PULSE (0 {VDD} {period*0.1} 1p 1p {period*0.5} {period})
VCLKB CLKB 0 PULSE ({VDD} 0 {period*0.1} 1p 1p {period*0.5} {period})

* Stage 0
MTG1P_0 DIN CLK_G0 m1_0 VDD_G0 pmos w=1.1u l=0.28u 
MTG1N_0 DIN CLKB_G0 m1_0 0 nmos w=0.55u l=0.28u 
MM1P_0 m2_0 m1_0 VDD_G0 VDD_G0 pmos w=1.1u l=0.28u 
MM1N_0 m2_0 m1_0 0 0 nmos w=0.55u l=0.28u 
MM2P_0 m3_0 m2_0 VDD_G0 VDD_G0 pmos w=0.6u l=0.28u 
MM2N_0 m3_0 m2_0 0 0 nmos w=0.3u l=0.28u ad=0.072p 
MTG2P_0 m3_0 CLKB_G0 m1_0 VDD_G0 pmos w=0.6u l=0.28u 
MTG2N_0 m3_0 CLK_G0 m1_0 0 nmos w=0.3u l=0.28u ad=0.072p 
MTG3P_0 m2_0 CLKB_G0 s1_0 VDD_G0 pmos w=1.1u l=0.28u 
MTG3N_0 m2_0 CLK_G0 s1_0 0 nmos w=0.55u l=0.28u 
MS1P_0 Q0 s1_0 VDD_G0 VDD_G0 pmos w=1.1u l=0.28u 
MS1N_0 Q0 s1_0 0 0 nmos w=0.55u l=0.28u 
MS2P_0 s3_0 Q0 VDD_G0 VDD_G0 pmos w=0.6u l=0.28u 
MS2N_0 s3_0 Q0 0 0 nmos w=0.3u l=0.28u ad=0.072p 
MTG4P_0 s3_0 CLK_G0 s1_0 VDD_G0 pmos w=0.6u l=0.28u 
MTG4N_0 s3_0 CLKB_G0 s1_0 0 nmos w=0.3u l=0.28u ad=0.072p 

* Stage 1
MTG1P_1 Q0 CLK_G0 m1_1 VDD_G0 pmos w=1.1u l=0.28u 
MTG1N_1 Q0 CLKB_G0 m1_1 0 nmos w=0.55u l=0.28u 
MM1P_1 m2_1 m1_1 VDD_G0 VDD_G0 pmos w=1.1u l=0.28u 
MM1N_1 m2_1 m1_1 0 0 nmos w=0.55u l=0.28u 
MM2P_1 m3_1 m2_1 VDD_G0 VDD_G0 pmos w=0.6u l=0.28u 
MM2N_1 m3_1 m2_1 0 0 nmos w=0.3u l=0.28u ad=0.072p 
MTG2P_1 m3_1 CLKB_G0 m1_1 VDD_G0 pmos w=0.6u l=0.28u 
MTG2N_1 m3_1 CLK_G0 m1_1 0 nmos w=0.3u l=0.28u ad=0.072p 
MTG3P_1 m2_1 CLKB_G0 s1_1 VDD_G0 pmos w=1.1u l=0.28u 
MTG3N_1 m2_1 CLK_G0 s1_1 0 nmos w=0.55u l=0.28u 
MS1P_1 Q1 s1_1 VDD_G0 VDD_G0 pmos w=1.1u l=0.28u 
MS1N_1 Q1 s1_1 0 0 nmos w=0.55u l=0.28u 
MS2P_1 s3_1 Q1 VDD_G0 VDD_G0 pmos w=0.6u l=0.28u 
MS2N_1 s3_1 Q1 0 0 nmos w=0.3u l=0.28u ad=0.072p 
MTG4P_1 s3_1 CLK_G0 s1_1 VDD_G0 pmos w=0.6u l=0.28u 
MTG4N_1 s3_1 CLKB_G0 s1_1 0 nmos w=0.3u l=0.28u ad=0.072p 

* Stage 2
MTG1P_2 Q1 CLK_G0 m1_2 VDD_G0 pmos w=1.1u l=0.28u 
MTG1N_2 Q1 CLKB_G0 m1_2 0 nmos w=0.55u l=0.28u 
MM1P_2 m2_2 m1_2 VDD_G0 VDD_G0 pmos w=1.1u l=0.28u 
MM1N_2 m2_2 m1_2 0 0 nmos w=0.55u l=0.28u 
MM2P_2 m3_2 m2_2 VDD_G0 VDD_G0 pmos w=0.6u l=0.28u 
MM2N_2 m3_2 m2_2 0 0 nmos w=0.3u l=0.28u ad=0.072p 
MTG2P_2 m3_2 CLKB_G0 m1_2 VDD_G0 pmos w=0.6u l=0.28u 
MTG2N_2 m3_2 CLK_G0 m1_2 0 nmos w=0.3u l=0.28u ad=0.072p 
MTG3P_2 m2_2 CLKB_G0 s1_2 VDD_G0 pmos w=1.1u l=0.28u 
MTG3N_2 m2_2 CLK_G0 s1_2 0 nmos w=0.55u l=0.28u 
MS1P_2 Q2 s1_2 VDD_G0 VDD_G0 pmos w=1.1u l=0.28u 
MS1N_2 Q2 s1_2 0 0 nmos w=0.55u l=0.28u 
MS2P_2 s3_2 Q2 VDD_G0 VDD_G0 pmos w=0.6u l=0.28u 
MS2N_2 s3_2 Q2 0 0 nmos w=0.3u l=0.28u ad=0.072p 
MTG4P_2 s3_2 CLK_G0 s1_2 VDD_G0 pmos w=0.6u l=0.28u 
MTG4N_2 s3_2 CLKB_G0 s1_2 0 nmos w=0.3u l=0.28u ad=0.072p 

* Stage 3
MTG1P_3 Q2 CLK_G0 m1_3 VDD_G0 pmos w=1.1u l=0.28u 
MTG1N_3 Q2 CLKB_G0 m1_3 0 nmos w=0.55u l=0.28u 
MM1P_3 m2_3 m1_3 VDD_G0 VDD_G0 pmos w=1.1u l=0.28u 
MM1N_3 m2_3 m1_3 0 0 nmos w=0.55u l=0.28u 
MM2P_3 m3_3 m2_3 VDD_G0 VDD_G0 pmos w=0.6u l=0.28u 
MM2N_3 m3_3 m2_3 0 0 nmos w=0.3u l=0.28u ad=0.072p 
MTG2P_3 m3_3 CLKB_G0 m1_3 VDD_G0 pmos w=0.6u l=0.28u 
MTG2N_3 m3_3 CLK_G0 m1_3 0 nmos w=0.3u l=0.28u ad=0.072p 
MTG3P_3 m2_3 CLKB_G0 s1_3 VDD_G0 pmos w=1.1u l=0.28u 
MTG3N_3 m2_3 CLK_G0 s1_3 0 nmos w=0.55u l=0.28u 
MS1P_3 Q3 s1_3 VDD_G0 VDD_G0 pmos w=1.1u l=0.28u 
MS1N_3 Q3 s1_3 0 0 nmos w=0.55u l=0.28u 
MS2P_3 s3_3 Q3 VDD_G0 VDD_G0 pmos w=0.6u l=0.28u 
MS2N_3 s3_3 Q3 0 0 nmos w=0.3u l=0.28u ad=0.072p 
MTG4P_3 s3_3 CLK_G0 s1_3 VDD_G0 pmos w=0.6u l=0.28u 
MTG4N_3 s3_3 CLKB_G0 s1_3 0 nmos w=0.3u l=0.28u ad=0.072p 

* Stage 4
MTG1P_4 Q3 CLK_G0 m1_4 VDD_G0 pmos w=1.1u l=0.28u 
MTG1N_4 Q3 CLKB_G0 m1_4 0 nmos w=0.55u l=0.28u 
MM1P_4 m2_4 m1_4 VDD_G0 VDD_G0 pmos w=1.1u l=0.28u 
MM1N_4 m2_4 m1_4 0 0 nmos w=0.55u l=0.28u 
MM2P_4 m3_4 m2_4 VDD_G0 VDD_G0 pmos w=0.6u l=0.28u 
MM2N_4 m3_4 m2_4 0 0 nmos w=0.3u l=0.28u ad=0.072p 
MTG2P_4 m3_4 CLKB_G0 m1_4 VDD_G0 pmos w=0.6u l=0.28u 
MTG2N_4 m3_4 CLK_G0 m1_4 0 nmos w=0.3u l=0.28u ad=0.072p 
MTG3P_4 m2_4 CLKB_G0 s1_4 VDD_G0 pmos w=1.1u l=0.28u 
MTG3N_4 m2_4 CLK_G0 s1_4 0 nmos w=0.55u l=0.28u 
MS1P_4 Q4 s1_4 VDD_G0 VDD_G0 pmos w=1.1u l=0.28u 
MS1N_4 Q4 s1_4 0 0 nmos w=0.55u l=0.28u 
MS2P_4 s3_4 Q4 VDD_G0 VDD_G0 pmos w=0.6u l=0.28u 
MS2N_4 s3_4 Q4 0 0 nmos w=0.3u l=0.28u ad=0.072p 
MTG4P_4 s3_4 CLK_G0 s1_4 VDD_G0 pmos w=0.6u l=0.28u 
MTG4N_4 s3_4 CLKB_G0 s1_4 0 nmos w=0.3u l=0.28u ad=0.072p 

* Stage 5
MTG1P_5 Q4 CLK_G0 m1_5 VDD_G0 pmos w=1.1u l=0.28u 
MTG1N_5 Q4 CLKB_G0 m1_5 0 nmos w=0.55u l=0.28u 
MM1P_5 m2_5 m1_5 VDD_G0 VDD_G0 pmos w=1.1u l=0.28u 
MM1N_5 m2_5 m1_5 0 0 nmos w=0.55u l=0.28u 
MM2P_5 m3_5 m2_5 VDD_G0 VDD_G0 pmos w=0.6u l=0.28u 
MM2N_5 m3_5 m2_5 0 0 nmos w=0.3u l=0.28u ad=0.072p 
MTG2P_5 m3_5 CLKB_G0 m1_5 VDD_G0 pmos w=0.6u l=0.28u 
MTG2N_5 m3_5 CLK_G0 m1_5 0 nmos w=0.3u l=0.28u ad=0.072p 
MTG3P_5 m2_5 CLKB_G0 s1_5 VDD_G0 pmos w=1.1u l=0.28u 
MTG3N_5 m2_5 CLK_G0 s1_5 0 nmos w=0.55u l=0.28u 
MS1P_5 Q5 s1_5 VDD_G0 VDD_G0 pmos w=1.1u l=0.28u 
MS1N_5 Q5 s1_5 0 0 nmos w=0.55u l=0.28u 
MS2P_5 s3_5 Q5 VDD_G0 VDD_G0 pmos w=0.6u l=0.28u 
MS2N_5 s3_5 Q5 0 0 nmos w=0.3u l=0.28u ad=0.072p 
MTG4P_5 s3_5 CLK_G0 s1_5 VDD_G0 pmos w=0.6u l=0.28u 
MTG4N_5 s3_5 CLKB_G0 s1_5 0 nmos w=0.3u l=0.28u ad=0.072p 

* Stage 6
MTG1P_6 Q5 CLK_G0 m1_6 VDD_G0 pmos w=1.1u l=0.28u 
MTG1N_6 Q5 CLKB_G0 m1_6 0 nmos w=0.55u l=0.28u 
MM1P_6 m2_6 m1_6 VDD_G0 VDD_G0 pmos w=1.1u l=0.28u 
MM1N_6 m2_6 m1_6 0 0 nmos w=0.55u l=0.28u 
MM2P_6 m3_6 m2_6 VDD_G0 VDD_G0 pmos w=0.6u l=0.28u 
MM2N_6 m3_6 m2_6 0 0 nmos w=0.3u l=0.28u ad=0.072p 
MTG2P_6 m3_6 CLKB_G0 m1_6 VDD_G0 pmos w=0.6u l=0.28u 
MTG2N_6 m3_6 CLK_G0 m1_6 0 nmos w=0.3u l=0.28u ad=0.072p 
MTG3P_6 m2_6 CLKB_G0 s1_6 VDD_G0 pmos w=1.1u l=0.28u 
MTG3N_6 m2_6 CLK_G0 s1_6 0 nmos w=0.55u l=0.28u 
MS1P_6 Q6 s1_6 VDD_G0 VDD_G0 pmos w=1.1u l=0.28u 
MS1N_6 Q6 s1_6 0 0 nmos w=0.55u l=0.28u 
MS2P_6 s3_6 Q6 VDD_G0 VDD_G0 pmos w=0.6u l=0.28u 
MS2N_6 s3_6 Q6 0 0 nmos w=0.3u l=0.28u ad=0.072p 
MTG4P_6 s3_6 CLK_G0 s1_6 VDD_G0 pmos w=0.6u l=0.28u 
MTG4N_6 s3_6 CLKB_G0 s1_6 0 nmos w=0.3u l=0.28u ad=0.072p 

* Stage 7
MTG1P_7 Q6 CLK_G0 m1_7 VDD_G0 pmos w=1.1u l=0.28u 
MTG1N_7 Q6 CLKB_G0 m1_7 0 nmos w=0.55u l=0.28u 
MM1P_7 m2_7 m1_7 VDD_G0 VDD_G0 pmos w=1.1u l=0.28u 
MM1N_7 m2_7 m1_7 0 0 nmos w=0.55u l=0.28u 
MM2P_7 m3_7 m2_7 VDD_G0 VDD_G0 pmos w=0.6u l=0.28u 
MM2N_7 m3_7 m2_7 0 0 nmos w=0.3u l=0.28u ad=0.072p 
MTG2P_7 m3_7 CLKB_G0 m1_7 VDD_G0 pmos w=0.6u l=0.28u 
MTG2N_7 m3_7 CLK_G0 m1_7 0 nmos w=0.3u l=0.28u ad=0.072p 
MTG3P_7 m2_7 CLKB_G0 s1_7 VDD_G0 pmos w=1.1u l=0.28u 
MTG3N_7 m2_7 CLK_G0 s1_7 0 nmos w=0.55u l=0.28u 
MS1P_7 Q7 s1_7 VDD_G0 VDD_G0 pmos w=1.1u l=0.28u 
MS1N_7 Q7 s1_7 0 0 nmos w=0.55u l=0.28u 
MS2P_7 s3_7 Q7 VDD_G0 VDD_G0 pmos w=0.6u l=0.28u 
MS2N_7 s3_7 Q7 0 0 nmos w=0.3u l=0.28u ad=0.072p 
MTG4P_7 s3_7 CLK_G0 s1_7 VDD_G0 pmos w=0.6u l=0.28u 
MTG4N_7 s3_7 CLKB_G0 s1_7 0 nmos w=0.3u l=0.28u ad=0.072p 

* Stage 8
MTG1P_8 Q7 CLK_G0 m1_8 VDD_G0 pmos w=1.1u l=0.28u 
MTG1N_8 Q7 CLKB_G0 m1_8 0 nmos w=0.55u l=0.28u 
MM1P_8 m2_8 m1_8 VDD_G0 VDD_G0 pmos w=1.1u l=0.28u 
MM1N_8 m2_8 m1_8 0 0 nmos w=0.55u l=0.28u 
MM2P_8 m3_8 m2_8 VDD_G0 VDD_G0 pmos w=0.6u l=0.28u 
MM2N_8 m3_8 m2_8 0 0 nmos w=0.3u l=0.28u ad=0.072p 
MTG2P_8 m3_8 CLKB_G0 m1_8 VDD_G0 pmos w=0.6u l=0.28u 
MTG2N_8 m3_8 CLK_G0 m1_8 0 nmos w=0.3u l=0.28u ad=0.072p 
MTG3P_8 m2_8 CLKB_G0 s1_8 VDD_G0 pmos w=1.1u l=0.28u 
MTG3N_8 m2_8 CLK_G0 s1_8 0 nmos w=0.55u l=0.28u 
MS1P_8 Q8 s1_8 VDD_G0 VDD_G0 pmos w=1.1u l=0.28u 
MS1N_8 Q8 s1_8 0 0 nmos w=0.55u l=0.28u 
MS2P_8 s3_8 Q8 VDD_G0 VDD_G0 pmos w=0.6u l=0.28u 
MS2N_8 s3_8 Q8 0 0 nmos w=0.3u l=0.28u ad=0.072p 
MTG4P_8 s3_8 CLK_G0 s1_8 VDD_G0 pmos w=0.6u l=0.28u 
MTG4N_8 s3_8 CLKB_G0 s1_8 0 nmos w=0.3u l=0.28u ad=0.072p 

* Stage 9
MTG1P_9 Q8 CLK_G0 m1_9 VDD_G0 pmos w=1.1u l=0.28u 
MTG1N_9 Q8 CLKB_G0 m1_9 0 nmos w=0.55u l=0.28u 
MM1P_9 m2_9 m1_9 VDD_G0 VDD_G0 pmos w=1.1u l=0.28u 
MM1N_9 m2_9 m1_9 0 0 nmos w=0.55u l=0.28u 
MM2P_9 m3_9 m2_9 VDD_G0 VDD_G0 pmos w=0.6u l=0.28u 
MM2N_9 m3_9 m2_9 0 0 nmos w=0.3u l=0.28u ad=0.072p 
MTG2P_9 m3_9 CLKB_G0 m1_9 VDD_G0 pmos w=0.6u l=0.28u 
MTG2N_9 m3_9 CLK_G0 m1_9 0 nmos w=0.3u l=0.28u ad=0.072p 
MTG3P_9 m2_9 CLKB_G0 s1_9 VDD_G0 pmos w=1.1u l=0.28u 
MTG3N_9 m2_9 CLK_G0 s1_9 0 nmos w=0.55u l=0.28u 
MS1P_9 Q9 s1_9 VDD_G0 VDD_G0 pmos w=1.1u l=0.28u 
MS1N_9 Q9 s1_9 0 0 nmos w=0.55u l=0.28u 
MS2P_9 s3_9 Q9 VDD_G0 VDD_G0 pmos w=0.6u l=0.28u 
MS2N_9 s3_9 Q9 0 0 nmos w=0.3u l=0.28u ad=0.072p 
MTG4P_9 s3_9 CLK_G0 s1_9 VDD_G0 pmos w=0.6u l=0.28u 
MTG4N_9 s3_9 CLKB_G0 s1_9 0 nmos w=0.3u l=0.28u ad=0.072p 

* Stage 10
MTG1P_10 Q9 CLK_G0 m1_10 VDD_G0 pmos w=1.1u l=0.28u 
MTG1N_10 Q9 CLKB_G0 m1_10 0 nmos w=0.55u l=0.28u 
MM1P_10 m2_10 m1_10 VDD_G0 VDD_G0 pmos w=1.1u l=0.28u 
MM1N_10 m2_10 m1_10 0 0 nmos w=0.55u l=0.28u 
MM2P_10 m3_10 m2_10 VDD_G0 VDD_G0 pmos w=0.6u l=0.28u 
MM2N_10 m3_10 m2_10 0 0 nmos w=0.3u l=0.28u ad=0.072p 
MTG2P_10 m3_10 CLKB_G0 m1_10 VDD_G0 pmos w=0.6u l=0.28u 
MTG2N_10 m3_10 CLK_G0 m1_10 0 nmos w=0.3u l=0.28u ad=0.072p 
MTG3P_10 m2_10 CLKB_G0 s1_10 VDD_G0 pmos w=1.1u l=0.28u 
MTG3N_10 m2_10 CLK_G0 s1_10 0 nmos w=0.55u l=0.28u 
MS1P_10 Q10 s1_10 VDD_G0 VDD_G0 pmos w=1.1u l=0.28u 
MS1N_10 Q10 s1_10 0 0 nmos w=0.55u l=0.28u 
MS2P_10 s3_10 Q10 VDD_G0 VDD_G0 pmos w=0.6u l=0.28u 
MS2N_10 s3_10 Q10 0 0 nmos w=0.3u l=0.28u ad=0.072p 
MTG4P_10 s3_10 CLK_G0 s1_10 VDD_G0 pmos w=0.6u l=0.28u 
MTG4N_10 s3_10 CLKB_G0 s1_10 0 nmos w=0.3u l=0.28u ad=0.072p 

* Stage 11
MTG1P_11 Q10 CLK_G0 m1_11 VDD_G0 pmos w=1.1u l=0.28u 
MTG1N_11 Q10 CLKB_G0 m1_11 0 nmos w=0.55u l=0.28u 
MM1P_11 m2_11 m1_11 VDD_G0 VDD_G0 pmos w=1.1u l=0.28u 
MM1N_11 m2_11 m1_11 0 0 nmos w=0.55u l=0.28u 
MM2P_11 m3_11 m2_11 VDD_G0 VDD_G0 pmos w=0.6u l=0.28u 
MM2N_11 m3_11 m2_11 0 0 nmos w=0.3u l=0.28u ad=0.072p 
MTG2P_11 m3_11 CLKB_G0 m1_11 VDD_G0 pmos w=0.6u l=0.28u 
MTG2N_11 m3_11 CLK_G0 m1_11 0 nmos w=0.3u l=0.28u ad=0.072p 
MTG3P_11 m2_11 CLKB_G0 s1_11 VDD_G0 pmos w=1.1u l=0.28u 
MTG3N_11 m2_11 CLK_G0 s1_11 0 nmos w=0.55u l=0.28u 
MS1P_11 Q11 s1_11 VDD_G0 VDD_G0 pmos w=1.1u l=0.28u 
MS1N_11 Q11 s1_11 0 0 nmos w=0.55u l=0.28u 
MS2P_11 s3_11 Q11 VDD_G0 VDD_G0 pmos w=0.6u l=0.28u 
MS2N_11 s3_11 Q11 0 0 nmos w=0.3u l=0.28u ad=0.072p 
MTG4P_11 s3_11 CLK_G0 s1_11 VDD_G0 pmos w=0.6u l=0.28u 
MTG4N_11 s3_11 CLKB_G0 s1_11 0 nmos w=0.3u l=0.28u ad=0.072p 

* Stage 12
MTG1P_12 Q11 CLK_G0 m1_12 VDD_G0 pmos w=1.1u l=0.28u 
MTG1N_12 Q11 CLKB_G0 m1_12 0 nmos w=0.55u l=0.28u 
MM1P_12 m2_12 m1_12 VDD_G0 VDD_G0 pmos w=1.1u l=0.28u 
MM1N_12 m2_12 m1_12 0 0 nmos w=0.55u l=0.28u 
MM2P_12 m3_12 m2_12 VDD_G0 VDD_G0 pmos w=0.6u l=0.28u 
MM2N_12 m3_12 m2_12 0 0 nmos w=0.3u l=0.28u ad=0.072p 
MTG2P_12 m3_12 CLKB_G0 m1_12 VDD_G0 pmos w=0.6u l=0.28u 
MTG2N_12 m3_12 CLK_G0 m1_12 0 nmos w=0.3u l=0.28u ad=0.072p 
MTG3P_12 m2_12 CLKB_G0 s1_12 VDD_G0 pmos w=1.1u l=0.28u 
MTG3N_12 m2_12 CLK_G0 s1_12 0 nmos w=0.55u l=0.28u 
MS1P_12 Q12 s1_12 VDD_G0 VDD_G0 pmos w=1.1u l=0.28u 
MS1N_12 Q12 s1_12 0 0 nmos w=0.55u l=0.28u 
MS2P_12 s3_12 Q12 VDD_G0 VDD_G0 pmos w=0.6u l=0.28u 
MS2N_12 s3_12 Q12 0 0 nmos w=0.3u l=0.28u ad=0.072p 
MTG4P_12 s3_12 CLK_G0 s1_12 VDD_G0 pmos w=0.6u l=0.28u 
MTG4N_12 s3_12 CLKB_G0 s1_12 0 nmos w=0.3u l=0.28u ad=0.072p 

* Stage 13
MTG1P_13 Q12 CLK_G0 m1_13 VDD_G0 pmos w=1.1u l=0.28u 
MTG1N_13 Q12 CLKB_G0 m1_13 0 nmos w=0.55u l=0.28u 
MM1P_13 m2_13 m1_13 VDD_G0 VDD_G0 pmos w=1.1u l=0.28u 
MM1N_13 m2_13 m1_13 0 0 nmos w=0.55u l=0.28u 
MM2P_13 m3_13 m2_13 VDD_G0 VDD_G0 pmos w=0.6u l=0.28u 
MM2N_13 m3_13 m2_13 0 0 nmos w=0.3u l=0.28u ad=0.072p 
MTG2P_13 m3_13 CLKB_G0 m1_13 VDD_G0 pmos w=0.6u l=0.28u 
MTG2N_13 m3_13 CLK_G0 m1_13 0 nmos w=0.3u l=0.28u ad=0.072p 
MTG3P_13 m2_13 CLKB_G0 s1_13 VDD_G0 pmos w=1.1u l=0.28u 
MTG3N_13 m2_13 CLK_G0 s1_13 0 nmos w=0.55u l=0.28u 
MS1P_13 Q13 s1_13 VDD_G0 VDD_G0 pmos w=1.1u l=0.28u 
MS1N_13 Q13 s1_13 0 0 nmos w=0.55u l=0.28u 
MS2P_13 s3_13 Q13 VDD_G0 VDD_G0 pmos w=0.6u l=0.28u 
MS2N_13 s3_13 Q13 0 0 nmos w=0.3u l=0.28u ad=0.072p 
MTG4P_13 s3_13 CLK_G0 s1_13 VDD_G0 pmos w=0.6u l=0.28u 
MTG4N_13 s3_13 CLKB_G0 s1_13 0 nmos w=0.3u l=0.28u ad=0.072p 

* Stage 14
MTG1P_14 Q13 CLK_G0 m1_14 VDD_G0 pmos w=1.1u l=0.28u 
MTG1N_14 Q13 CLKB_G0 m1_14 0 nmos w=0.55u l=0.28u 
MM1P_14 m2_14 m1_14 VDD_G0 VDD_G0 pmos w=1.1u l=0.28u 
MM1N_14 m2_14 m1_14 0 0 nmos w=0.55u l=0.28u 
MM2P_14 m3_14 m2_14 VDD_G0 VDD_G0 pmos w=0.6u l=0.28u 
MM2N_14 m3_14 m2_14 0 0 nmos w=0.3u l=0.28u ad=0.072p 
MTG2P_14 m3_14 CLKB_G0 m1_14 VDD_G0 pmos w=0.6u l=0.28u 
MTG2N_14 m3_14 CLK_G0 m1_14 0 nmos w=0.3u l=0.28u ad=0.072p 
MTG3P_14 m2_14 CLKB_G0 s1_14 VDD_G0 pmos w=1.1u l=0.28u 
MTG3N_14 m2_14 CLK_G0 s1_14 0 nmos w=0.55u l=0.28u 
MS1P_14 Q14 s1_14 VDD_G0 VDD_G0 pmos w=1.1u l=0.28u 
MS1N_14 Q14 s1_14 0 0 nmos w=0.55u l=0.28u 
MS2P_14 s3_14 Q14 VDD_G0 VDD_G0 pmos w=0.6u l=0.28u 
MS2N_14 s3_14 Q14 0 0 nmos w=0.3u l=0.28u ad=0.072p 
MTG4P_14 s3_14 CLK_G0 s1_14 VDD_G0 pmos w=0.6u l=0.28u 
MTG4N_14 s3_14 CLKB_G0 s1_14 0 nmos w=0.3u l=0.28u ad=0.072p 

* Stage 15
MTG1P_15 Q14 CLK_G0 m1_15 VDD_G0 pmos w=1.1u l=0.28u 
MTG1N_15 Q14 CLKB_G0 m1_15 0 nmos w=0.55u l=0.28u 
MM1P_15 m2_15 m1_15 VDD_G0 VDD_G0 pmos w=1.1u l=0.28u 
MM1N_15 m2_15 m1_15 0 0 nmos w=0.55u l=0.28u 
MM2P_15 m3_15 m2_15 VDD_G0 VDD_G0 pmos w=0.6u l=0.28u 
MM2N_15 m3_15 m2_15 0 0 nmos w=0.3u l=0.28u ad=0.072p 
MTG2P_15 m3_15 CLKB_G0 m1_15 VDD_G0 pmos w=0.6u l=0.28u 
MTG2N_15 m3_15 CLK_G0 m1_15 0 nmos w=0.3u l=0.28u ad=0.072p 
MTG3P_15 m2_15 CLKB_G0 s1_15 VDD_G0 pmos w=1.1u l=0.28u 
MTG3N_15 m2_15 CLK_G0 s1_15 0 nmos w=0.55u l=0.28u 
MS1P_15 Q15 s1_15 VDD_G0 VDD_G0 pmos w=1.1u l=0.28u 
MS1N_15 Q15 s1_15 0 0 nmos w=0.55u l=0.28u 
MS2P_15 s3_15 Q15 VDD_G0 VDD_G0 pmos w=0.6u l=0.28u 
MS2N_15 s3_15 Q15 0 0 nmos w=0.3u l=0.28u ad=0.072p 
MTG4P_15 s3_15 CLK_G0 s1_15 VDD_G0 pmos w=0.6u l=0.28u 
MTG4N_15 s3_15 CLKB_G0 s1_15 0 nmos w=0.3u l=0.28u ad=0.072p 

* Stage 16
MTG1P_16 Q15 CLK_G0 m1_16 VDD_G0 pmos w=1.1u l=0.28u 
MTG1N_16 Q15 CLKB_G0 m1_16 0 nmos w=0.55u l=0.28u 
MM1P_16 m2_16 m1_16 VDD_G0 VDD_G0 pmos w=1.1u l=0.28u 
MM1N_16 m2_16 m1_16 0 0 nmos w=0.55u l=0.28u 
MM2P_16 m3_16 m2_16 VDD_G0 VDD_G0 pmos w=0.6u l=0.28u 
MM2N_16 m3_16 m2_16 0 0 nmos w=0.3u l=0.28u ad=0.072p 
MTG2P_16 m3_16 CLKB_G0 m1_16 VDD_G0 pmos w=0.6u l=0.28u 
MTG2N_16 m3_16 CLK_G0 m1_16 0 nmos w=0.3u l=0.28u ad=0.072p 
MTG3P_16 m2_16 CLKB_G0 s1_16 VDD_G0 pmos w=1.1u l=0.28u 
MTG3N_16 m2_16 CLK_G0 s1_16 0 nmos w=0.55u l=0.28u 
MS1P_16 Q16 s1_16 VDD_G0 VDD_G0 pmos w=1.1u l=0.28u 
MS1N_16 Q16 s1_16 0 0 nmos w=0.55u l=0.28u 
MS2P_16 s3_16 Q16 VDD_G0 VDD_G0 pmos w=0.6u l=0.28u 
MS2N_16 s3_16 Q16 0 0 nmos w=0.3u l=0.28u ad=0.072p 
MTG4P_16 s3_16 CLK_G0 s1_16 VDD_G0 pmos w=0.6u l=0.28u 
MTG4N_16 s3_16 CLKB_G0 s1_16 0 nmos w=0.3u l=0.28u ad=0.072p 

* Stage 17
MTG1P_17 Q16 CLK_G0 m1_17 VDD_G0 pmos w=1.1u l=0.28u 
MTG1N_17 Q16 CLKB_G0 m1_17 0 nmos w=0.55u l=0.28u 
MM1P_17 m2_17 m1_17 VDD_G0 VDD_G0 pmos w=1.1u l=0.28u 
MM1N_17 m2_17 m1_17 0 0 nmos w=0.55u l=0.28u 
MM2P_17 m3_17 m2_17 VDD_G0 VDD_G0 pmos w=0.6u l=0.28u 
MM2N_17 m3_17 m2_17 0 0 nmos w=0.3u l=0.28u ad=0.072p 
MTG2P_17 m3_17 CLKB_G0 m1_17 VDD_G0 pmos w=0.6u l=0.28u 
MTG2N_17 m3_17 CLK_G0 m1_17 0 nmos w=0.3u l=0.28u ad=0.072p 
MTG3P_17 m2_17 CLKB_G0 s1_17 VDD_G0 pmos w=1.1u l=0.28u 
MTG3N_17 m2_17 CLK_G0 s1_17 0 nmos w=0.55u l=0.28u 
MS1P_17 Q17 s1_17 VDD_G0 VDD_G0 pmos w=1.1u l=0.28u 
MS1N_17 Q17 s1_17 0 0 nmos w=0.55u l=0.28u 
MS2P_17 s3_17 Q17 VDD_G0 VDD_G0 pmos w=0.6u l=0.28u 
MS2N_17 s3_17 Q17 0 0 nmos w=0.3u l=0.28u ad=0.072p 
MTG4P_17 s3_17 CLK_G0 s1_17 VDD_G0 pmos w=0.6u l=0.28u 
MTG4N_17 s3_17 CLKB_G0 s1_17 0 nmos w=0.3u l=0.28u ad=0.072p 

* Stage 18
MTG1P_18 Q17 CLK_G0 m1_18 VDD_G0 pmos w=1.1u l=0.28u 
MTG1N_18 Q17 CLKB_G0 m1_18 0 nmos w=0.55u l=0.28u 
MM1P_18 m2_18 m1_18 VDD_G0 VDD_G0 pmos w=1.1u l=0.28u 
MM1N_18 m2_18 m1_18 0 0 nmos w=0.55u l=0.28u 
MM2P_18 m3_18 m2_18 VDD_G0 VDD_G0 pmos w=0.6u l=0.28u 
MM2N_18 m3_18 m2_18 0 0 nmos w=0.3u l=0.28u ad=0.072p 
MTG2P_18 m3_18 CLKB_G0 m1_18 VDD_G0 pmos w=0.6u l=0.28u 
MTG2N_18 m3_18 CLK_G0 m1_18 0 nmos w=0.3u l=0.28u ad=0.072p 
MTG3P_18 m2_18 CLKB_G0 s1_18 VDD_G0 pmos w=1.1u l=0.28u 
MTG3N_18 m2_18 CLK_G0 s1_18 0 nmos w=0.55u l=0.28u 
MS1P_18 Q18 s1_18 VDD_G0 VDD_G0 pmos w=1.1u l=0.28u 
MS1N_18 Q18 s1_18 0 0 nmos w=0.55u l=0.28u 
MS2P_18 s3_18 Q18 VDD_G0 VDD_G0 pmos w=0.6u l=0.28u 
MS2N_18 s3_18 Q18 0 0 nmos w=0.3u l=0.28u ad=0.072p 
MTG4P_18 s3_18 CLK_G0 s1_18 VDD_G0 pmos w=0.6u l=0.28u 
MTG4N_18 s3_18 CLKB_G0 s1_18 0 nmos w=0.3u l=0.28u ad=0.072p 

* Stage 19
MTG1P_19 Q18 CLK_G0 m1_19 VDD_G0 pmos w=1.1u l=0.28u 
MTG1N_19 Q18 CLKB_G0 m1_19 0 nmos w=0.55u l=0.28u 
MM1P_19 m2_19 m1_19 VDD_G0 VDD_G0 pmos w=1.1u l=0.28u 
MM1N_19 m2_19 m1_19 0 0 nmos w=0.55u l=0.28u 
MM2P_19 m3_19 m2_19 VDD_G0 VDD_G0 pmos w=0.6u l=0.28u 
MM2N_19 m3_19 m2_19 0 0 nmos w=0.3u l=0.28u ad=0.072p 
MTG2P_19 m3_19 CLKB_G0 m1_19 VDD_G0 pmos w=0.6u l=0.28u 
MTG2N_19 m3_19 CLK_G0 m1_19 0 nmos w=0.3u l=0.28u ad=0.072p 
MTG3P_19 m2_19 CLKB_G0 s1_19 VDD_G0 pmos w=1.1u l=0.28u 
MTG3N_19 m2_19 CLK_G0 s1_19 0 nmos w=0.55u l=0.28u 
MS1P_19 Q19 s1_19 VDD_G0 VDD_G0 pmos w=1.1u l=0.28u 
MS1N_19 Q19 s1_19 0 0 nmos w=0.55u l=0.28u 
MS2P_19 s3_19 Q19 VDD_G0 VDD_G0 pmos w=0.6u l=0.28u 
MS2N_19 s3_19 Q19 0 0 nmos w=0.3u l=0.28u ad=0.072p 
MTG4P_19 s3_19 CLK_G0 s1_19 VDD_G0 pmos w=0.6u l=0.28u 
MTG4N_19 s3_19 CLKB_G0 s1_19 0 nmos w=0.3u l=0.28u ad=0.072p 

* Stage 20
MTG1P_20 Q19 CLK_G0 m1_20 VDD_G0 pmos w=1.1u l=0.28u 
MTG1N_20 Q19 CLKB_G0 m1_20 0 nmos w=0.55u l=0.28u 
MM1P_20 m2_20 m1_20 VDD_G0 VDD_G0 pmos w=1.1u l=0.28u 
MM1N_20 m2_20 m1_20 0 0 nmos w=0.55u l=0.28u 
MM2P_20 m3_20 m2_20 VDD_G0 VDD_G0 pmos w=0.6u l=0.28u 
MM2N_20 m3_20 m2_20 0 0 nmos w=0.3u l=0.28u ad=0.072p 
MTG2P_20 m3_20 CLKB_G0 m1_20 VDD_G0 pmos w=0.6u l=0.28u 
MTG2N_20 m3_20 CLK_G0 m1_20 0 nmos w=0.3u l=0.28u ad=0.072p 
MTG3P_20 m2_20 CLKB_G0 s1_20 VDD_G0 pmos w=1.1u l=0.28u 
MTG3N_20 m2_20 CLK_G0 s1_20 0 nmos w=0.55u l=0.28u 
MS1P_20 Q20 s1_20 VDD_G0 VDD_G0 pmos w=1.1u l=0.28u 
MS1N_20 Q20 s1_20 0 0 nmos w=0.55u l=0.28u 
MS2P_20 s3_20 Q20 VDD_G0 VDD_G0 pmos w=0.6u l=0.28u 
MS2N_20 s3_20 Q20 0 0 nmos w=0.3u l=0.28u ad=0.072p 
MTG4P_20 s3_20 CLK_G0 s1_20 VDD_G0 pmos w=0.6u l=0.28u 
MTG4N_20 s3_20 CLKB_G0 s1_20 0 nmos w=0.3u l=0.28u ad=0.072p 

* Stage 21
MTG1P_21 Q20 CLK_G0 m1_21 VDD_G0 pmos w=1.1u l=0.28u 
MTG1N_21 Q20 CLKB_G0 m1_21 0 nmos w=0.55u l=0.28u 
MM1P_21 m2_21 m1_21 VDD_G0 VDD_G0 pmos w=1.1u l=0.28u 
MM1N_21 m2_21 m1_21 0 0 nmos w=0.55u l=0.28u 
MM2P_21 m3_21 m2_21 VDD_G0 VDD_G0 pmos w=0.6u l=0.28u 
MM2N_21 m3_21 m2_21 0 0 nmos w=0.3u l=0.28u ad=0.072p 
MTG2P_21 m3_21 CLKB_G0 m1_21 VDD_G0 pmos w=0.6u l=0.28u 
MTG2N_21 m3_21 CLK_G0 m1_21 0 nmos w=0.3u l=0.28u ad=0.072p 
MTG3P_21 m2_21 CLKB_G0 s1_21 VDD_G0 pmos w=1.1u l=0.28u 
MTG3N_21 m2_21 CLK_G0 s1_21 0 nmos w=0.55u l=0.28u 
MS1P_21 Q21 s1_21 VDD_G0 VDD_G0 pmos w=1.1u l=0.28u 
MS1N_21 Q21 s1_21 0 0 nmos w=0.55u l=0.28u 
MS2P_21 s3_21 Q21 VDD_G0 VDD_G0 pmos w=0.6u l=0.28u 
MS2N_21 s3_21 Q21 0 0 nmos w=0.3u l=0.28u ad=0.072p 
MTG4P_21 s3_21 CLK_G0 s1_21 VDD_G0 pmos w=0.6u l=0.28u 
MTG4N_21 s3_21 CLKB_G0 s1_21 0 nmos w=0.3u l=0.28u ad=0.072p 

* Stage 22
MTG1P_22 Q21 CLK_G0 m1_22 VDD_G0 pmos w=1.1u l=0.28u 
MTG1N_22 Q21 CLKB_G0 m1_22 0 nmos w=0.55u l=0.28u 
MM1P_22 m2_22 m1_22 VDD_G0 VDD_G0 pmos w=1.1u l=0.28u 
MM1N_22 m2_22 m1_22 0 0 nmos w=0.55u l=0.28u 
MM2P_22 m3_22 m2_22 VDD_G0 VDD_G0 pmos w=0.6u l=0.28u 
MM2N_22 m3_22 m2_22 0 0 nmos w=0.3u l=0.28u ad=0.072p 
MTG2P_22 m3_22 CLKB_G0 m1_22 VDD_G0 pmos w=0.6u l=0.28u 
MTG2N_22 m3_22 CLK_G0 m1_22 0 nmos w=0.3u l=0.28u ad=0.072p 
MTG3P_22 m2_22 CLKB_G0 s1_22 VDD_G0 pmos w=1.1u l=0.28u 
MTG3N_22 m2_22 CLK_G0 s1_22 0 nmos w=0.55u l=0.28u 
MS1P_22 Q22 s1_22 VDD_G0 VDD_G0 pmos w=1.1u l=0.28u 
MS1N_22 Q22 s1_22 0 0 nmos w=0.55u l=0.28u 
MS2P_22 s3_22 Q22 VDD_G0 VDD_G0 pmos w=0.6u l=0.28u 
MS2N_22 s3_22 Q22 0 0 nmos w=0.3u l=0.28u ad=0.072p 
MTG4P_22 s3_22 CLK_G0 s1_22 VDD_G0 pmos w=0.6u l=0.28u 
MTG4N_22 s3_22 CLKB_G0 s1_22 0 nmos w=0.3u l=0.28u ad=0.072p 

* Stage 23
MTG1P_23 Q22 CLK_G0 m1_23 VDD_G0 pmos w=1.1u l=0.28u 
MTG1N_23 Q22 CLKB_G0 m1_23 0 nmos w=0.55u l=0.28u 
MM1P_23 m2_23 m1_23 VDD_G0 VDD_G0 pmos w=1.1u l=0.28u 
MM1N_23 m2_23 m1_23 0 0 nmos w=0.55u l=0.28u 
MM2P_23 m3_23 m2_23 VDD_G0 VDD_G0 pmos w=0.6u l=0.28u 
MM2N_23 m3_23 m2_23 0 0 nmos w=0.3u l=0.28u ad=0.072p 
MTG2P_23 m3_23 CLKB_G0 m1_23 VDD_G0 pmos w=0.6u l=0.28u 
MTG2N_23 m3_23 CLK_G0 m1_23 0 nmos w=0.3u l=0.28u ad=0.072p 
MTG3P_23 m2_23 CLKB_G0 s1_23 VDD_G0 pmos w=1.1u l=0.28u 
MTG3N_23 m2_23 CLK_G0 s1_23 0 nmos w=0.55u l=0.28u 
MS1P_23 Q23 s1_23 VDD_G0 VDD_G0 pmos w=1.1u l=0.28u 
MS1N_23 Q23 s1_23 0 0 nmos w=0.55u l=0.28u 
MS2P_23 s3_23 Q23 VDD_G0 VDD_G0 pmos w=0.6u l=0.28u 
MS2N_23 s3_23 Q23 0 0 nmos w=0.3u l=0.28u ad=0.072p 
MTG4P_23 s3_23 CLK_G0 s1_23 VDD_G0 pmos w=0.6u l=0.28u 
MTG4N_23 s3_23 CLKB_G0 s1_23 0 nmos w=0.3u l=0.28u ad=0.072p 

* Stage 24
MTG1P_24 Q23 CLK_G0 m1_24 VDD_G0 pmos w=1.1u l=0.28u 
MTG1N_24 Q23 CLKB_G0 m1_24 0 nmos w=0.55u l=0.28u 
MM1P_24 m2_24 m1_24 VDD_G0 VDD_G0 pmos w=1.1u l=0.28u 
MM1N_24 m2_24 m1_24 0 0 nmos w=0.55u l=0.28u 
MM2P_24 m3_24 m2_24 VDD_G0 VDD_G0 pmos w=0.6u l=0.28u 
MM2N_24 m3_24 m2_24 0 0 nmos w=0.3u l=0.28u ad=0.072p 
MTG2P_24 m3_24 CLKB_G0 m1_24 VDD_G0 pmos w=0.6u l=0.28u 
MTG2N_24 m3_24 CLK_G0 m1_24 0 nmos w=0.3u l=0.28u ad=0.072p 
MTG3P_24 m2_24 CLKB_G0 s1_24 VDD_G0 pmos w=1.1u l=0.28u 
MTG3N_24 m2_24 CLK_G0 s1_24 0 nmos w=0.55u l=0.28u 
MS1P_24 Q24 s1_24 VDD_G0 VDD_G0 pmos w=1.1u l=0.28u 
MS1N_24 Q24 s1_24 0 0 nmos w=0.55u l=0.28u 
MS2P_24 s3_24 Q24 VDD_G0 VDD_G0 pmos w=0.6u l=0.28u 
MS2N_24 s3_24 Q24 0 0 nmos w=0.3u l=0.28u ad=0.072p 
MTG4P_24 s3_24 CLK_G0 s1_24 VDD_G0 pmos w=0.6u l=0.28u 
MTG4N_24 s3_24 CLKB_G0 s1_24 0 nmos w=0.3u l=0.28u ad=0.072p 

* Stage 25
MTG1P_25 Q24 CLK_G0 m1_25 VDD_G0 pmos w=1.1u l=0.28u 
MTG1N_25 Q24 CLKB_G0 m1_25 0 nmos w=0.55u l=0.28u 
MM1P_25 m2_25 m1_25 VDD_G0 VDD_G0 pmos w=1.1u l=0.28u 
MM1N_25 m2_25 m1_25 0 0 nmos w=0.55u l=0.28u 
MM2P_25 m3_25 m2_25 VDD_G0 VDD_G0 pmos w=0.6u l=0.28u 
MM2N_25 m3_25 m2_25 0 0 nmos w=0.3u l=0.28u ad=0.072p 
MTG2P_25 m3_25 CLKB_G0 m1_25 VDD_G0 pmos w=0.6u l=0.28u 
MTG2N_25 m3_25 CLK_G0 m1_25 0 nmos w=0.3u l=0.28u ad=0.072p 
MTG3P_25 m2_25 CLKB_G0 s1_25 VDD_G0 pmos w=1.1u l=0.28u 
MTG3N_25 m2_25 CLK_G0 s1_25 0 nmos w=0.55u l=0.28u 
MS1P_25 Q25 s1_25 VDD_G0 VDD_G0 pmos w=1.1u l=0.28u 
MS1N_25 Q25 s1_25 0 0 nmos w=0.55u l=0.28u 
MS2P_25 s3_25 Q25 VDD_G0 VDD_G0 pmos w=0.6u l=0.28u 
MS2N_25 s3_25 Q25 0 0 nmos w=0.3u l=0.28u ad=0.072p 
MTG4P_25 s3_25 CLK_G0 s1_25 VDD_G0 pmos w=0.6u l=0.28u 
MTG4N_25 s3_25 CLKB_G0 s1_25 0 nmos w=0.3u l=0.28u ad=0.072p 

* Stage 26
MTG1P_26 Q25 CLK_G0 m1_26 VDD_G0 pmos w=1.1u l=0.28u 
MTG1N_26 Q25 CLKB_G0 m1_26 0 nmos w=0.55u l=0.28u 
MM1P_26 m2_26 m1_26 VDD_G0 VDD_G0 pmos w=1.1u l=0.28u 
MM1N_26 m2_26 m1_26 0 0 nmos w=0.55u l=0.28u 
MM2P_26 m3_26 m2_26 VDD_G0 VDD_G0 pmos w=0.6u l=0.28u 
MM2N_26 m3_26 m2_26 0 0 nmos w=0.3u l=0.28u ad=0.072p 
MTG2P_26 m3_26 CLKB_G0 m1_26 VDD_G0 pmos w=0.6u l=0.28u 
MTG2N_26 m3_26 CLK_G0 m1_26 0 nmos w=0.3u l=0.28u ad=0.072p 
MTG3P_26 m2_26 CLKB_G0 s1_26 VDD_G0 pmos w=1.1u l=0.28u 
MTG3N_26 m2_26 CLK_G0 s1_26 0 nmos w=0.55u l=0.28u 
MS1P_26 Q26 s1_26 VDD_G0 VDD_G0 pmos w=1.1u l=0.28u 
MS1N_26 Q26 s1_26 0 0 nmos w=0.55u l=0.28u 
MS2P_26 s3_26 Q26 VDD_G0 VDD_G0 pmos w=0.6u l=0.28u 
MS2N_26 s3_26 Q26 0 0 nmos w=0.3u l=0.28u ad=0.072p 
MTG4P_26 s3_26 CLK_G0 s1_26 VDD_G0 pmos w=0.6u l=0.28u 
MTG4N_26 s3_26 CLKB_G0 s1_26 0 nmos w=0.3u l=0.28u ad=0.072p 

* Stage 27
MTG1P_27 Q26 CLK_G0 m1_27 VDD_G0 pmos w=1.1u l=0.28u 
MTG1N_27 Q26 CLKB_G0 m1_27 0 nmos w=0.55u l=0.28u 
MM1P_27 m2_27 m1_27 VDD_G0 VDD_G0 pmos w=1.1u l=0.28u 
MM1N_27 m2_27 m1_27 0 0 nmos w=0.55u l=0.28u 
MM2P_27 m3_27 m2_27 VDD_G0 VDD_G0 pmos w=0.6u l=0.28u 
MM2N_27 m3_27 m2_27 0 0 nmos w=0.3u l=0.28u ad=0.072p 
MTG2P_27 m3_27 CLKB_G0 m1_27 VDD_G0 pmos w=0.6u l=0.28u 
MTG2N_27 m3_27 CLK_G0 m1_27 0 nmos w=0.3u l=0.28u ad=0.072p 
MTG3P_27 m2_27 CLKB_G0 s1_27 VDD_G0 pmos w=1.1u l=0.28u 
MTG3N_27 m2_27 CLK_G0 s1_27 0 nmos w=0.55u l=0.28u 
MS1P_27 Q27 s1_27 VDD_G0 VDD_G0 pmos w=1.1u l=0.28u 
MS1N_27 Q27 s1_27 0 0 nmos w=0.55u l=0.28u 
MS2P_27 s3_27 Q27 VDD_G0 VDD_G0 pmos w=0.6u l=0.28u 
MS2N_27 s3_27 Q27 0 0 nmos w=0.3u l=0.28u ad=0.072p 
MTG4P_27 s3_27 CLK_G0 s1_27 VDD_G0 pmos w=0.6u l=0.28u 
MTG4N_27 s3_27 CLKB_G0 s1_27 0 nmos w=0.3u l=0.28u ad=0.072p 

* Stage 28
MTG1P_28 Q27 CLK_G0 m1_28 VDD_G0 pmos w=1.1u l=0.28u 
MTG1N_28 Q27 CLKB_G0 m1_28 0 nmos w=0.55u l=0.28u 
MM1P_28 m2_28 m1_28 VDD_G0 VDD_G0 pmos w=1.1u l=0.28u 
MM1N_28 m2_28 m1_28 0 0 nmos w=0.55u l=0.28u 
MM2P_28 m3_28 m2_28 VDD_G0 VDD_G0 pmos w=0.6u l=0.28u 
MM2N_28 m3_28 m2_28 0 0 nmos w=0.3u l=0.28u ad=0.072p 
MTG2P_28 m3_28 CLKB_G0 m1_28 VDD_G0 pmos w=0.6u l=0.28u 
MTG2N_28 m3_28 CLK_G0 m1_28 0 nmos w=0.3u l=0.28u ad=0.072p 
MTG3P_28 m2_28 CLKB_G0 s1_28 VDD_G0 pmos w=1.1u l=0.28u 
MTG3N_28 m2_28 CLK_G0 s1_28 0 nmos w=0.55u l=0.28u 
MS1P_28 Q28 s1_28 VDD_G0 VDD_G0 pmos w=1.1u l=0.28u 
MS1N_28 Q28 s1_28 0 0 nmos w=0.55u l=0.28u 
MS2P_28 s3_28 Q28 VDD_G0 VDD_G0 pmos w=0.6u l=0.28u 
MS2N_28 s3_28 Q28 0 0 nmos w=0.3u l=0.28u ad=0.072p 
MTG4P_28 s3_28 CLK_G0 s1_28 VDD_G0 pmos w=0.6u l=0.28u 
MTG4N_28 s3_28 CLKB_G0 s1_28 0 nmos w=0.3u l=0.28u ad=0.072p 

* Stage 29
MTG1P_29 Q28 CLK_G0 m1_29 VDD_G0 pmos w=1.1u l=0.28u 
MTG1N_29 Q28 CLKB_G0 m1_29 0 nmos w=0.55u l=0.28u 
MM1P_29 m2_29 m1_29 VDD_G0 VDD_G0 pmos w=1.1u l=0.28u 
MM1N_29 m2_29 m1_29 0 0 nmos w=0.55u l=0.28u 
MM2P_29 m3_29 m2_29 VDD_G0 VDD_G0 pmos w=0.6u l=0.28u 
MM2N_29 m3_29 m2_29 0 0 nmos w=0.3u l=0.28u ad=0.072p 
MTG2P_29 m3_29 CLKB_G0 m1_29 VDD_G0 pmos w=0.6u l=0.28u 
MTG2N_29 m3_29 CLK_G0 m1_29 0 nmos w=0.3u l=0.28u ad=0.072p 
MTG3P_29 m2_29 CLKB_G0 s1_29 VDD_G0 pmos w=1.1u l=0.28u 
MTG3N_29 m2_29 CLK_G0 s1_29 0 nmos w=0.55u l=0.28u 
MS1P_29 Q29 s1_29 VDD_G0 VDD_G0 pmos w=1.1u l=0.28u 
MS1N_29 Q29 s1_29 0 0 nmos w=0.55u l=0.28u 
MS2P_29 s3_29 Q29 VDD_G0 VDD_G0 pmos w=0.6u l=0.28u 
MS2N_29 s3_29 Q29 0 0 nmos w=0.3u l=0.28u ad=0.072p 
MTG4P_29 s3_29 CLK_G0 s1_29 VDD_G0 pmos w=0.6u l=0.28u 
MTG4N_29 s3_29 CLKB_G0 s1_29 0 nmos w=0.3u l=0.28u ad=0.072p 

* Stage 30
MTG1P_30 Q29 CLK_G0 m1_30 VDD_G0 pmos w=1.1u l=0.28u 
MTG1N_30 Q29 CLKB_G0 m1_30 0 nmos w=0.55u l=0.28u 
MM1P_30 m2_30 m1_30 VDD_G0 VDD_G0 pmos w=1.1u l=0.28u 
MM1N_30 m2_30 m1_30 0 0 nmos w=0.55u l=0.28u 
MM2P_30 m3_30 m2_30 VDD_G0 VDD_G0 pmos w=0.6u l=0.28u 
MM2N_30 m3_30 m2_30 0 0 nmos w=0.3u l=0.28u ad=0.072p 
MTG2P_30 m3_30 CLKB_G0 m1_30 VDD_G0 pmos w=0.6u l=0.28u 
MTG2N_30 m3_30 CLK_G0 m1_30 0 nmos w=0.3u l=0.28u ad=0.072p 
MTG3P_30 m2_30 CLKB_G0 s1_30 VDD_G0 pmos w=1.1u l=0.28u 
MTG3N_30 m2_30 CLK_G0 s1_30 0 nmos w=0.55u l=0.28u 
MS1P_30 Q30 s1_30 VDD_G0 VDD_G0 pmos w=1.1u l=0.28u 
MS1N_30 Q30 s1_30 0 0 nmos w=0.55u l=0.28u 
MS2P_30 s3_30 Q30 VDD_G0 VDD_G0 pmos w=0.6u l=0.28u 
MS2N_30 s3_30 Q30 0 0 nmos w=0.3u l=0.28u ad=0.072p 
MTG4P_30 s3_30 CLK_G0 s1_30 VDD_G0 pmos w=0.6u l=0.28u 
MTG4N_30 s3_30 CLKB_G0 s1_30 0 nmos w=0.3u l=0.28u ad=0.072p 

* Stage 31
MTG1P_31 Q30 CLK_G0 m1_31 VDD_G0 pmos w=1.1u l=0.28u 
MTG1N_31 Q30 CLKB_G0 m1_31 0 nmos w=0.55u l=0.28u 
MM1P_31 m2_31 m1_31 VDD_G0 VDD_G0 pmos w=1.1u l=0.28u 
MM1N_31 m2_31 m1_31 0 0 nmos w=0.55u l=0.28u 
MM2P_31 m3_31 m2_31 VDD_G0 VDD_G0 pmos w=0.6u l=0.28u 
MM2N_31 m3_31 m2_31 0 0 nmos w=0.3u l=0.28u ad=0.072p 
MTG2P_31 m3_31 CLKB_G0 m1_31 VDD_G0 pmos w=0.6u l=0.28u 
MTG2N_31 m3_31 CLK_G0 m1_31 0 nmos w=0.3u l=0.28u ad=0.072p 
MTG3P_31 m2_31 CLKB_G0 s1_31 VDD_G0 pmos w=1.1u l=0.28u 
MTG3N_31 m2_31 CLK_G0 s1_31 0 nmos w=0.55u l=0.28u 
MS1P_31 Q31 s1_31 VDD_G0 VDD_G0 pmos w=1.1u l=0.28u 
MS1N_31 Q31 s1_31 0 0 nmos w=0.55u l=0.28u 
MS2P_31 s3_31 Q31 VDD_G0 VDD_G0 pmos w=0.6u l=0.28u 
MS2N_31 s3_31 Q31 0 0 nmos w=0.3u l=0.28u ad=0.072p 
MTG4P_31 s3_31 CLK_G0 s1_31 VDD_G0 pmos w=0.6u l=0.28u 
MTG4N_31 s3_31 CLKB_G0 s1_31 0 nmos w=0.3u l=0.28u ad=0.072p 

* Stage 32
MTG1P_32 Q31 CLK_G0 m1_32 VDD_G0 pmos w=1.1u l=0.28u 
MTG1N_32 Q31 CLKB_G0 m1_32 0 nmos w=0.55u l=0.28u 
MM1P_32 m2_32 m1_32 VDD_G0 VDD_G0 pmos w=1.1u l=0.28u 
MM1N_32 m2_32 m1_32 0 0 nmos w=0.55u l=0.28u 
MM2P_32 m3_32 m2_32 VDD_G0 VDD_G0 pmos w=0.6u l=0.28u 
MM2N_32 m3_32 m2_32 0 0 nmos w=0.3u l=0.28u ad=0.072p 
MTG2P_32 m3_32 CLKB_G0 m1_32 VDD_G0 pmos w=0.6u l=0.28u 
MTG2N_32 m3_32 CLK_G0 m1_32 0 nmos w=0.3u l=0.28u ad=0.072p 
MTG3P_32 m2_32 CLKB_G0 s1_32 VDD_G0 pmos w=1.1u l=0.28u 
MTG3N_32 m2_32 CLK_G0 s1_32 0 nmos w=0.55u l=0.28u 
MS1P_32 Q32 s1_32 VDD_G0 VDD_G0 pmos w=1.1u l=0.28u 
MS1N_32 Q32 s1_32 0 0 nmos w=0.55u l=0.28u 
MS2P_32 s3_32 Q32 VDD_G0 VDD_G0 pmos w=0.6u l=0.28u 
MS2N_32 s3_32 Q32 0 0 nmos w=0.3u l=0.28u ad=0.072p 
MTG4P_32 s3_32 CLK_G0 s1_32 VDD_G0 pmos w=0.6u l=0.28u 
MTG4N_32 s3_32 CLKB_G0 s1_32 0 nmos w=0.3u l=0.28u ad=0.072p 

* Stage 33
MTG1P_33 Q32 CLK_G0 m1_33 VDD_G0 pmos w=1.1u l=0.28u 
MTG1N_33 Q32 CLKB_G0 m1_33 0 nmos w=0.55u l=0.28u 
MM1P_33 m2_33 m1_33 VDD_G0 VDD_G0 pmos w=1.1u l=0.28u 
MM1N_33 m2_33 m1_33 0 0 nmos w=0.55u l=0.28u 
MM2P_33 m3_33 m2_33 VDD_G0 VDD_G0 pmos w=0.6u l=0.28u 
MM2N_33 m3_33 m2_33 0 0 nmos w=0.3u l=0.28u ad=0.072p 
MTG2P_33 m3_33 CLKB_G0 m1_33 VDD_G0 pmos w=0.6u l=0.28u 
MTG2N_33 m3_33 CLK_G0 m1_33 0 nmos w=0.3u l=0.28u ad=0.072p 
MTG3P_33 m2_33 CLKB_G0 s1_33 VDD_G0 pmos w=1.1u l=0.28u 
MTG3N_33 m2_33 CLK_G0 s1_33 0 nmos w=0.55u l=0.28u 
MS1P_33 Q33 s1_33 VDD_G0 VDD_G0 pmos w=1.1u l=0.28u 
MS1N_33 Q33 s1_33 0 0 nmos w=0.55u l=0.28u 
MS2P_33 s3_33 Q33 VDD_G0 VDD_G0 pmos w=0.6u l=0.28u 
MS2N_33 s3_33 Q33 0 0 nmos w=0.3u l=0.28u ad=0.072p 
MTG4P_33 s3_33 CLK_G0 s1_33 VDD_G0 pmos w=0.6u l=0.28u 
MTG4N_33 s3_33 CLKB_G0 s1_33 0 nmos w=0.3u l=0.28u ad=0.072p 

* Stage 34
MTG1P_34 Q33 CLK_G0 m1_34 VDD_G0 pmos w=1.1u l=0.28u 
MTG1N_34 Q33 CLKB_G0 m1_34 0 nmos w=0.55u l=0.28u 
MM1P_34 m2_34 m1_34 VDD_G0 VDD_G0 pmos w=1.1u l=0.28u 
MM1N_34 m2_34 m1_34 0 0 nmos w=0.55u l=0.28u 