* 128-stage DFF chain - Generated from dff1.cir

* Models
.model nmos nmos (level=14 version=4.8.2)
.model pmos pmos (level=14 version=4.8.2)

.param VDD=1.8
.param period = 1ns

* Simulation flags
.options acct
.options num_threads=64
.sparse
.output Results/128bit_dff_chain_res_1.raw

VVDD VDD 0 DC {VDD}
VDIN DIN 0 PULSE (0 {VDD} {period*0.25} 1p 1p {period} {period*2})
VCLK CLK 0 PULSE (0 {VDD} {period*0.1} 1p 1p {period*0.5} {period})
VCLKB CLKB 0 PULSE ({VDD} 0 {period*0.1} 1p 1p {period*0.5} {period})

* Stage 0
MTG1P_0 DIN__MTG1P_0 CLK__MTG1P_0 m1_0__MTG1P_0 VDD__MTG1P_0 pmos w=1.1u l=0.28u 
MTG1N_0 DIN__MTG1N_0 CLKB__MTG1N_0 m1_0__MTG1N_0 0 nmos w=0.55u l=0.28u ad=0.132p 
MM1P_0 m2_0__MM1P_0 m1_0__MM1P_0 VDD__MM1P_0 VDD__MM1P_0 pmos w=1.1u l=0.28u 
MM1N_0 m2_0__MM1N_0 m1_0__MM1N_0 0 0 nmos w=0.55u l=0.28u ad=0.132p 
MM2P_0 m3_0__MM2P_0 m2_0__MM2P_0 VDD__MM2P_0 VDD__MM2P_0 pmos w=0.6u l=0.28u 
MM2N_0 m3_0__MM2N_0 m2_0__MM2N_0 0 0 nmos w=0.3u l=0.28u ad=0.072p 
MTG2P_0 m3_0__MTG2P_0 CLKB__MTG2P_0 m1_0__MTG2P_0 VDD__MTG2P_0 pmos w=0.6u l=0.28u 
MTG2N_0 m3_0__MTG2N_0 CLK__MTG2N_0 m1_0__MTG2N_0 0 nmos w=0.3u l=0.28u ad=0.072p 
MTG3P_0 m2_0__MTG3P_0 CLKB__MTG3P_0 s1_0__MTG3P_0 VDD__MTG3P_0 pmos w=1.1u l=0.28u 
MTG3N_0 m2_0__MTG3N_0 CLK__MTG3N_0 s1_0__MTG3N_0 0 nmos w=0.55u l=0.28u ad=0.132p 
MS1P_0 Q0__MS1P_0 s1_0__MS1P_0 VDD__MS1P_0 VDD__MS1P_0 pmos w=1.1u l=0.28u 
MS1N_0 Q0__MS1N_0 s1_0__MS1N_0 0 0 nmos w=0.55u l=0.28u ad=0.132p 
MS2P_0 s3_0__MS2P_0 Q0__MS2P_0 VDD__MS2P_0 VDD__MS2P_0 pmos w=0.6u l=0.28u 
MS2N_0 s3_0__MS2N_0 Q0__MS2N_0 0 0 nmos w=0.3u l=0.28u ad=0.072p 
MTG4P_0 s3_0__MTG4P_0 CLK__MTG4P_0 s1_0__MTG4P_0 VDD__MTG4P_0 pmos w=0.6u l=0.28u 
MTG4N_0 s3_0__MTG4N_0 CLKB__MTG4N_0 s1_0__MTG4N_0 0 nmos w=0.3u l=0.28u ad=0.072p 

* Stage 1
MTG1P_1 Q0__MTG1P_1 CLK__MTG1P_1 m1_1__MTG1P_1 VDD__MTG1P_1 pmos w=1.1u l=0.28u 
MTG1N_1 Q0__MTG1N_1 CLKB__MTG1N_1 m1_1__MTG1N_1 0 nmos w=0.55u l=0.28u ad=0.132p 
MM1P_1 m2_1__MM1P_1 m1_1__MM1P_1 VDD__MM1P_1 VDD__MM1P_1 pmos w=1.1u l=0.28u 
MM1N_1 m2_1__MM1N_1 m1_1__MM1N_1 0 0 nmos w=0.55u l=0.28u ad=0.132p 
MM2P_1 m3_1__MM2P_1 m2_1__MM2P_1 VDD__MM2P_1 VDD__MM2P_1 pmos w=0.6u l=0.28u 
MM2N_1 m3_1__MM2N_1 m2_1__MM2N_1 0 0 nmos w=0.3u l=0.28u ad=0.072p 
MTG2P_1 m3_1__MTG2P_1 CLKB__MTG2P_1 m1_1__MTG2P_1 VDD__MTG2P_1 pmos w=0.6u l=0.28u 
MTG2N_1 m3_1__MTG2N_1 CLK__MTG2N_1 m1_1__MTG2N_1 0 nmos w=0.3u l=0.28u ad=0.072p 
MTG3P_1 m2_1__MTG3P_1 CLKB__MTG3P_1 s1_1__MTG3P_1 VDD__MTG3P_1 pmos w=1.1u l=0.28u 
MTG3N_1 m2_1__MTG3N_1 CLK__MTG3N_1 s1_1__MTG3N_1 0 nmos w=0.55u l=0.28u ad=0.132p 
MS1P_1 Q1__MS1P_1 s1_1__MS1P_1 VDD__MS1P_1 VDD__MS1P_1 pmos w=1.1u l=0.28u 
MS1N_1 Q1__MS1N_1 s1_1__MS1N_1 0 0 nmos w=0.55u l=0.28u ad=0.132p 
MS2P_1 s3_1__MS2P_1 Q1__MS2P_1 VDD__MS2P_1 VDD__MS2P_1 pmos w=0.6u l=0.28u 
MS2N_1 s3_1__MS2N_1 Q1__MS2N_1 0 0 nmos w=0.3u l=0.28u ad=0.072p 
MTG4P_1 s3_1__MTG4P_1 CLK__MTG4P_1 s1_1__MTG4P_1 VDD__MTG4P_1 pmos w=0.6u l=0.28u 
MTG4N_1 s3_1__MTG4N_1 CLKB__MTG4N_1 s1_1__MTG4N_1 0 nmos w=0.3u l=0.28u ad=0.072p 

* Stage 2
MTG1P_2 Q1__MTG1P_2 CLK__MTG1P_2 m1_2__MTG1P_2 VDD__MTG1P_2 pmos w=1.1u l=0.28u 
MTG1N_2 Q1__MTG1N_2 CLKB__MTG1N_2 m1_2__MTG1N_2 0 nmos w=0.55u l=0.28u ad=0.132p 
MM1P_2 m2_2__MM1P_2 m1_2__MM1P_2 VDD__MM1P_2 VDD__MM1P_2 pmos w=1.1u l=0.28u 
MM1N_2 m2_2__MM1N_2 m1_2__MM1N_2 0 0 nmos w=0.55u l=0.28u ad=0.132p 
MM2P_2 m3_2__MM2P_2 m2_2__MM2P_2 VDD__MM2P_2 VDD__MM2P_2 pmos w=0.6u l=0.28u 
MM2N_2 m3_2__MM2N_2 m2_2__MM2N_2 0 0 nmos w=0.3u l=0.28u ad=0.072p 
MTG2P_2 m3_2__MTG2P_2 CLKB__MTG2P_2 m1_2__MTG2P_2 VDD__MTG2P_2 pmos w=0.6u l=0.28u 
MTG2N_2 m3_2__MTG2N_2 CLK__MTG2N_2 m1_2__MTG2N_2 0 nmos w=0.3u l=0.28u ad=0.072p 
MTG3P_2 m2_2__MTG3P_2 CLKB__MTG3P_2 s1_2__MTG3P_2 VDD__MTG3P_2 pmos w=1.1u l=0.28u 
MTG3N_2 m2_2__MTG3N_2 CLK__MTG3N_2 s1_2__MTG3N_2 0 nmos w=0.55u l=0.28u ad=0.132p 
MS1P_2 Q2__MS1P_2 s1_2__MS1P_2 VDD__MS1P_2 VDD__MS1P_2 pmos w=1.1u l=0.28u 
MS1N_2 Q2__MS1N_2 s1_2__MS1N_2 0 0 nmos w=0.55u l=0.28u ad=0.132p 
MS2P_2 s3_2__MS2P_2 Q2__MS2P_2 VDD__MS2P_2 VDD__MS2P_2 pmos w=0.6u l=0.28u 
MS2N_2 s3_2__MS2N_2 Q2__MS2N_2 0 0 nmos w=0.3u l=0.28u ad=0.072p 
MTG4P_2 s3_2__MTG4P_2 CLK__MTG4P_2 s1_2__MTG4P_2 VDD__MTG4P_2 pmos w=0.6u l=0.28u 
MTG4N_2 s3_2__MTG4N_2 CLKB__MTG4N_2 s1_2__MTG4N_2 0 nmos w=0.3u l=0.28u ad=0.072p 

* Stage 3
MTG1P_3 Q2__MTG1P_3 CLK__MTG1P_3 m1_3__MTG1P_3 VDD__MTG1P_3 pmos w=1.1u l=0.28u 
MTG1N_3 Q2__MTG1N_3 CLKB__MTG1N_3 m1_3__MTG1N_3 0 nmos w=0.55u l=0.28u ad=0.132p 
MM1P_3 m2_3__MM1P_3 m1_3__MM1P_3 VDD__MM1P_3 VDD__MM1P_3 pmos w=1.1u l=0.28u 
MM1N_3 m2_3__MM1N_3 m1_3__MM1N_3 0 0 nmos w=0.55u l=0.28u ad=0.132p 
MM2P_3 m3_3__MM2P_3 m2_3__MM2P_3 VDD__MM2P_3 VDD__MM2P_3 pmos w=0.6u l=0.28u 
MM2N_3 m3_3__MM2N_3 m2_3__MM2N_3 0 0 nmos w=0.3u l=0.28u ad=0.072p 
MTG2P_3 m3_3__MTG2P_3 CLKB__MTG2P_3 m1_3__MTG2P_3 VDD__MTG2P_3 pmos w=0.6u l=0.28u 
MTG2N_3 m3_3__MTG2N_3 CLK__MTG2N_3 m1_3__MTG2N_3 0 nmos w=0.3u l=0.28u ad=0.072p 
MTG3P_3 m2_3__MTG3P_3 CLKB__MTG3P_3 s1_3__MTG3P_3 VDD__MTG3P_3 pmos w=1.1u l=0.28u 
MTG3N_3 m2_3__MTG3N_3 CLK__MTG3N_3 s1_3__MTG3N_3 0 nmos w=0.55u l=0.28u ad=0.132p 
MS1P_3 Q3__MS1P_3 s1_3__MS1P_3 VDD__MS1P_3 VDD__MS1P_3 pmos w=1.1u l=0.28u 
MS1N_3 Q3__MS1N_3 s1_3__MS1N_3 0 0 nmos w=0.55u l=0.28u ad=0.132p 
MS2P_3 s3_3__MS2P_3 Q3__MS2P_3 VDD__MS2P_3 VDD__MS2P_3 pmos w=0.6u l=0.28u 
MS2N_3 s3_3__MS2N_3 Q3__MS2N_3 0 0 nmos w=0.3u l=0.28u ad=0.072p 
MTG4P_3 s3_3__MTG4P_3 CLK__MTG4P_3 s1_3__MTG4P_3 VDD__MTG4P_3 pmos w=0.6u l=0.28u 
MTG4N_3 s3_3__MTG4N_3 CLKB__MTG4N_3 s1_3__MTG4N_3 0 nmos w=0.3u l=0.28u ad=0.072p 

* Stage 4
MTG1P_4 Q3__MTG1P_4 CLK__MTG1P_4 m1_4__MTG1P_4 VDD__MTG1P_4 pmos w=1.1u l=0.28u 
MTG1N_4 Q3__MTG1N_4 CLKB__MTG1N_4 m1_4__MTG1N_4 0 nmos w=0.55u l=0.28u ad=0.132p 
MM1P_4 m2_4__MM1P_4 m1_4__MM1P_4 VDD__MM1P_4 VDD__MM1P_4 pmos w=1.1u l=0.28u 
MM1N_4 m2_4__MM1N_4 m1_4__MM1N_4 0 0 nmos w=0.55u l=0.28u ad=0.132p 
MM2P_4 m3_4__MM2P_4 m2_4__MM2P_4 VDD__MM2P_4 VDD__MM2P_4 pmos w=0.6u l=0.28u 
MM2N_4 m3_4__MM2N_4 m2_4__MM2N_4 0 0 nmos w=0.3u l=0.28u ad=0.072p 
MTG2P_4 m3_4__MTG2P_4 CLKB__MTG2P_4 m1_4__MTG2P_4 VDD__MTG2P_4 pmos w=0.6u l=0.28u 
MTG2N_4 m3_4__MTG2N_4 CLK__MTG2N_4 m1_4__MTG2N_4 0 nmos w=0.3u l=0.28u ad=0.072p 
MTG3P_4 m2_4__MTG3P_4 CLKB__MTG3P_4 s1_4__MTG3P_4 VDD__MTG3P_4 pmos w=1.1u l=0.28u 
MTG3N_4 m2_4__MTG3N_4 CLK__MTG3N_4 s1_4__MTG3N_4 0 nmos w=0.55u l=0.28u ad=0.132p 
MS1P_4 Q4__MS1P_4 s1_4__MS1P_4 VDD__MS1P_4 VDD__MS1P_4 pmos w=1.1u l=0.28u 
MS1N_4 Q4__MS1N_4 s1_4__MS1N_4 0 0 nmos w=0.55u l=0.28u ad=0.132p 
MS2P_4 s3_4__MS2P_4 Q4__MS2P_4 VDD__MS2P_4 VDD__MS2P_4 pmos w=0.6u l=0.28u 
MS2N_4 s3_4__MS2N_4 Q4__MS2N_4 0 0 nmos w=0.3u l=0.28u ad=0.072p 
MTG4P_4 s3_4__MTG4P_4 CLK__MTG4P_4 s1_4__MTG4P_4 VDD__MTG4P_4 pmos w=0.6u l=0.28u 
MTG4N_4 s3_4__MTG4N_4 CLKB__MTG4N_4 s1_4__MTG4N_4 0 nmos w=0.3u l=0.28u ad=0.072p 

* Stage 5
MTG1P_5 Q4__MTG1P_5 CLK__MTG1P_5 m1_5__MTG1P_5 VDD__MTG1P_5 pmos w=1.1u l=0.28u 
MTG1N_5 Q4__MTG1N_5 CLKB__MTG1N_5 m1_5__MTG1N_5 0 nmos w=0.55u l=0.28u ad=0.132p 
MM1P_5 m2_5__MM1P_5 m1_5__MM1P_5 VDD__MM1P_5 VDD__MM1P_5 pmos w=1.1u l=0.28u 
MM1N_5 m2_5__MM1N_5 m1_5__MM1N_5 0 0 nmos w=0.55u l=0.28u ad=0.132p 
MM2P_5 m3_5__MM2P_5 m2_5__MM2P_5 VDD__MM2P_5 VDD__MM2P_5 pmos w=0.6u l=0.28u 
MM2N_5 m3_5__MM2N_5 m2_5__MM2N_5 0 0 nmos w=0.3u l=0.28u ad=0.072p 
MTG2P_5 m3_5__MTG2P_5 CLKB__MTG2P_5 m1_5__MTG2P_5 VDD__MTG2P_5 pmos w=0.6u l=0.28u 
MTG2N_5 m3_5__MTG2N_5 CLK__MTG2N_5 m1_5__MTG2N_5 0 nmos w=0.3u l=0.28u ad=0.072p 
MTG3P_5 m2_5__MTG3P_5 CLKB__MTG3P_5 s1_5__MTG3P_5 VDD__MTG3P_5 pmos w=1.1u l=0.28u 
MTG3N_5 m2_5__MTG3N_5 CLK__MTG3N_5 s1_5__MTG3N_5 0 nmos w=0.55u l=0.28u ad=0.132p 
MS1P_5 Q5__MS1P_5 s1_5__MS1P_5 VDD__MS1P_5 VDD__MS1P_5 pmos w=1.1u l=0.28u 
MS1N_5 Q5__MS1N_5 s1_5__MS1N_5 0 0 nmos w=0.55u l=0.28u ad=0.132p 
MS2P_5 s3_5__MS2P_5 Q5__MS2P_5 VDD__MS2P_5 VDD__MS2P_5 pmos w=0.6u l=0.28u 
MS2N_5 s3_5__MS2N_5 Q5__MS2N_5 0 0 nmos w=0.3u l=0.28u ad=0.072p 
MTG4P_5 s3_5__MTG4P_5 CLK__MTG4P_5 s1_5__MTG4P_5 VDD__MTG4P_5 pmos w=0.6u l=0.28u 
MTG4N_5 s3_5__MTG4N_5 CLKB__MTG4N_5 s1_5__MTG4N_5 0 nmos w=0.3u l=0.28u ad=0.072p 

* Stage 6
MTG1P_6 Q5__MTG1P_6 CLK__MTG1P_6 m1_6__MTG1P_6 VDD__MTG1P_6 pmos w=1.1u l=0.28u 
MTG1N_6 Q5__MTG1N_6 CLKB__MTG1N_6 m1_6__MTG1N_6 0 nmos w=0.55u l=0.28u ad=0.132p 
MM1P_6 m2_6__MM1P_6 m1_6__MM1P_6 VDD__MM1P_6 VDD__MM1P_6 pmos w=1.1u l=0.28u 
MM1N_6 m2_6__MM1N_6 m1_6__MM1N_6 0 0 nmos w=0.55u l=0.28u ad=0.132p 
MM2P_6 m3_6__MM2P_6 m2_6__MM2P_6 VDD__MM2P_6 VDD__MM2P_6 pmos w=0.6u l=0.28u 
MM2N_6 m3_6__MM2N_6 m2_6__MM2N_6 0 0 nmos w=0.3u l=0.28u ad=0.072p 
MTG2P_6 m3_6__MTG2P_6 CLKB__MTG2P_6 m1_6__MTG2P_6 VDD__MTG2P_6 pmos w=0.6u l=0.28u 
MTG2N_6 m3_6__MTG2N_6 CLK__MTG2N_6 m1_6__MTG2N_6 0 nmos w=0.3u l=0.28u ad=0.072p 
MTG3P_6 m2_6__MTG3P_6 CLKB__MTG3P_6 s1_6__MTG3P_6 VDD__MTG3P_6 pmos w=1.1u l=0.28u 
MTG3N_6 m2_6__MTG3N_6 CLK__MTG3N_6 s1_6__MTG3N_6 0 nmos w=0.55u l=0.28u ad=0.132p 
MS1P_6 Q6__MS1P_6 s1_6__MS1P_6 VDD__MS1P_6 VDD__MS1P_6 pmos w=1.1u l=0.28u 
MS1N_6 Q6__MS1N_6 s1_6__MS1N_6 0 0 nmos w=0.55u l=0.28u ad=0.132p 
MS2P_6 s3_6__MS2P_6 Q6__MS2P_6 VDD__MS2P_6 VDD__MS2P_6 pmos w=0.6u l=0.28u 
MS2N_6 s3_6__MS2N_6 Q6__MS2N_6 0 0 nmos w=0.3u l=0.28u ad=0.072p 
MTG4P_6 s3_6__MTG4P_6 CLK__MTG4P_6 s1_6__MTG4P_6 VDD__MTG4P_6 pmos w=0.6u l=0.28u 
MTG4N_6 s3_6__MTG4N_6 CLKB__MTG4N_6 s1_6__MTG4N_6 0 nmos w=0.3u l=0.28u ad=0.072p 

* Stage 7
MTG1P_7 Q6__MTG1P_7 CLK__MTG1P_7 m1_7__MTG1P_7 VDD__MTG1P_7 pmos w=1.1u l=0.28u 
MTG1N_7 Q6__MTG1N_7 CLKB__MTG1N_7 m1_7__MTG1N_7 0 nmos w=0.55u l=0.28u ad=0.132p 
MM1P_7 m2_7__MM1P_7 m1_7__MM1P_7 VDD__MM1P_7 VDD__MM1P_7 pmos w=1.1u l=0.28u 
MM1N_7 m2_7__MM1N_7 m1_7__MM1N_7 0 0 nmos w=0.55u l=0.28u ad=0.132p 
MM2P_7 m3_7__MM2P_7 m2_7__MM2P_7 VDD__MM2P_7 VDD__MM2P_7 pmos w=0.6u l=0.28u 
MM2N_7 m3_7__MM2N_7 m2_7__MM2N_7 0 0 nmos w=0.3u l=0.28u ad=0.072p 
MTG2P_7 m3_7__MTG2P_7 CLKB__MTG2P_7 m1_7__MTG2P_7 VDD__MTG2P_7 pmos w=0.6u l=0.28u 
MTG2N_7 m3_7__MTG2N_7 CLK__MTG2N_7 m1_7__MTG2N_7 0 nmos w=0.3u l=0.28u ad=0.072p 
MTG3P_7 m2_7__MTG3P_7 CLKB__MTG3P_7 s1_7__MTG3P_7 VDD__MTG3P_7 pmos w=1.1u l=0.28u 
MTG3N_7 m2_7__MTG3N_7 CLK__MTG3N_7 s1_7__MTG3N_7 0 nmos w=0.55u l=0.28u ad=0.132p 
MS1P_7 Q7__MS1P_7 s1_7__MS1P_7 VDD__MS1P_7 VDD__MS1P_7 pmos w=1.1u l=0.28u 
MS1N_7 Q7__MS1N_7 s1_7__MS1N_7 0 0 nmos w=0.55u l=0.28u ad=0.132p 
MS2P_7 s3_7__MS2P_7 Q7__MS2P_7 VDD__MS2P_7 VDD__MS2P_7 pmos w=0.6u l=0.28u 
MS2N_7 s3_7__MS2N_7 Q7__MS2N_7 0 0 nmos w=0.3u l=0.28u ad=0.072p 
MTG4P_7 s3_7__MTG4P_7 CLK__MTG4P_7 s1_7__MTG4P_7 VDD__MTG4P_7 pmos w=0.6u l=0.28u 
MTG4N_7 s3_7__MTG4N_7 CLKB__MTG4N_7 s1_7__MTG4N_7 0 nmos w=0.3u l=0.28u ad=0.072p 

* Stage 8
MTG1P_8 Q7__MTG1P_8 CLK__MTG1P_8 m1_8__MTG1P_8 VDD__MTG1P_8 pmos w=1.1u l=0.28u 
MTG1N_8 Q7__MTG1N_8 CLKB__MTG1N_8 m1_8__MTG1N_8 0 nmos w=0.55u l=0.28u ad=0.132p 
MM1P_8 m2_8__MM1P_8 m1_8__MM1P_8 VDD__MM1P_8 VDD__MM1P_8 pmos w=1.1u l=0.28u 
MM1N_8 m2_8__MM1N_8 m1_8__MM1N_8 0 0 nmos w=0.55u l=0.28u ad=0.132p 
MM2P_8 m3_8__MM2P_8 m2_8__MM2P_8 VDD__MM2P_8 VDD__MM2P_8 pmos w=0.6u l=0.28u 
MM2N_8 m3_8__MM2N_8 m2_8__MM2N_8 0 0 nmos w=0.3u l=0.28u ad=0.072p 
MTG2P_8 m3_8__MTG2P_8 CLKB__MTG2P_8 m1_8__MTG2P_8 VDD__MTG2P_8 pmos w=0.6u l=0.28u 
MTG2N_8 m3_8__MTG2N_8 CLK__MTG2N_8 m1_8__MTG2N_8 0 nmos w=0.3u l=0.28u ad=0.072p 
MTG3P_8 m2_8__MTG3P_8 CLKB__MTG3P_8 s1_8__MTG3P_8 VDD__MTG3P_8 pmos w=1.1u l=0.28u 
MTG3N_8 m2_8__MTG3N_8 CLK__MTG3N_8 s1_8__MTG3N_8 0 nmos w=0.55u l=0.28u ad=0.132p 
MS1P_8 Q8__MS1P_8 s1_8__MS1P_8 VDD__MS1P_8 VDD__MS1P_8 pmos w=1.1u l=0.28u 
MS1N_8 Q8__MS1N_8 s1_8__MS1N_8 0 0 nmos w=0.55u l=0.28u ad=0.132p 
MS2P_8 s3_8__MS2P_8 Q8__MS2P_8 VDD__MS2P_8 VDD__MS2P_8 pmos w=0.6u l=0.28u 
MS2N_8 s3_8__MS2N_8 Q8__MS2N_8 0 0 nmos w=0.3u l=0.28u ad=0.072p 
MTG4P_8 s3_8__MTG4P_8 CLK__MTG4P_8 s1_8__MTG4P_8 VDD__MTG4P_8 pmos w=0.6u l=0.28u 
MTG4N_8 s3_8__MTG4N_8 CLKB__MTG4N_8 s1_8__MTG4N_8 0 nmos w=0.3u l=0.28u ad=0.072p 

* Stage 9
MTG1P_9 Q8__MTG1P_9 CLK__MTG1P_9 m1_9__MTG1P_9 VDD__MTG1P_9 pmos w=1.1u l=0.28u 
MTG1N_9 Q8__MTG1N_9 CLKB__MTG1N_9 m1_9__MTG1N_9 0 nmos w=0.55u l=0.28u ad=0.132p 
MM1P_9 m2_9__MM1P_9 m1_9__MM1P_9 VDD__MM1P_9 VDD__MM1P_9 pmos w=1.1u l=0.28u 
MM1N_9 m2_9__MM1N_9 m1_9__MM1N_9 0 0 nmos w=0.55u l=0.28u ad=0.132p 
MM2P_9 m3_9__MM2P_9 m2_9__MM2P_9 VDD__MM2P_9 VDD__MM2P_9 pmos w=0.6u l=0.28u 
MM2N_9 m3_9__MM2N_9 m2_9__MM2N_9 0 0 nmos w=0.3u l=0.28u ad=0.072p 
MTG2P_9 m3_9__MTG2P_9 CLKB__MTG2P_9 m1_9__MTG2P_9 VDD__MTG2P_9 pmos w=0.6u l=0.28u 
MTG2N_9 m3_9__MTG2N_9 CLK__MTG2N_9 m1_9__MTG2N_9 0 nmos w=0.3u l=0.28u ad=0.072p 
MTG3P_9 m2_9__MTG3P_9 CLKB__MTG3P_9 s1_9__MTG3P_9 VDD__MTG3P_9 pmos w=1.1u l=0.28u 
MTG3N_9 m2_9__MTG3N_9 CLK__MTG3N_9 s1_9__MTG3N_9 0 nmos w=0.55u l=0.28u ad=0.132p 
MS1P_9 Q9__MS1P_9 s1_9__MS1P_9 VDD__MS1P_9 VDD__MS1P_9 pmos w=1.1u l=0.28u 
MS1N_9 Q9__MS1N_9 s1_9__MS1N_9 0 0 nmos w=0.55u l=0.28u ad=0.132p 
MS2P_9 s3_9__MS2P_9 Q9__MS2P_9 VDD__MS2P_9 VDD__MS2P_9 pmos w=0.6u l=0.28u 
MS2N_9 s3_9__MS2N_9 Q9__MS2N_9 0 0 nmos w=0.3u l=0.28u ad=0.072p 
MTG4P_9 s3_9__MTG4P_9 CLK__MTG4P_9 s1_9__MTG4P_9 VDD__MTG4P_9 pmos w=0.6u l=0.28u 
MTG4N_9 s3_9__MTG4N_9 CLKB__MTG4N_9 s1_9__MTG4N_9 0 nmos w=0.3u l=0.28u ad=0.072p 

* Stage 10
MTG1P_10 Q9__MTG1P_10 CLK__MTG1P_10 m1_10__MTG1P_10 VDD__MTG1P_10 pmos w=1.1u l=0.28u 
MTG1N_10 Q9__MTG1N_10 CLKB__MTG1N_10 m1_10__MTG1N_10 0 nmos w=0.55u l=0.28u ad=0.132p 
MM1P_10 m2_10__MM1P_10 m1_10__MM1P_10 VDD__MM1P_10 VDD__MM1P_10 pmos w=1.1u l=0.28u 
MM1N_10 m2_10__MM1N_10 m1_10__MM1N_10 0 0 nmos w=0.55u l=0.28u ad=0.132p 
MM2P_10 m3_10__MM2P_10 m2_10__MM2P_10 VDD__MM2P_10 VDD__MM2P_10 pmos w=0.6u l=0.28u 
MM2N_10 m3_10__MM2N_10 m2_10__MM2N_10 0 0 nmos w=0.3u l=0.28u ad=0.072p 
MTG2P_10 m3_10__MTG2P_10 CLKB__MTG2P_10 m1_10__MTG2P_10 VDD__MTG2P_10 pmos w=0.6u l=0.28u 
MTG2N_10 m3_10__MTG2N_10 CLK__MTG2N_10 m1_10__MTG2N_10 0 nmos w=0.3u l=0.28u ad=0.072p 
MTG3P_10 m2_10__MTG3P_10 CLKB__MTG3P_10 s1_10__MTG3P_10 VDD__MTG3P_10 pmos w=1.1u l=0.28u 
MTG3N_10 m2_10__MTG3N_10 CLK__MTG3N_10 s1_10__MTG3N_10 0 nmos w=0.55u l=0.28u ad=0.132p 
MS1P_10 Q10__MS1P_10 s1_10__MS1P_10 VDD__MS1P_10 VDD__MS1P_10 pmos w=1.1u l=0.28u 
MS1N_10 Q10__MS1N_10 s1_10__MS1N_10 0 0 nmos w=0.55u l=0.28u ad=0.132p 
MS2P_10 s3_10__MS2P_10 Q10__MS2P_10 VDD__MS2P_10 VDD__MS2P_10 pmos w=0.6u l=0.28u 
MS2N_10 s3_10__MS2N_10 Q10__MS2N_10 0 0 nmos w=0.3u l=0.28u ad=0.072p 
MTG4P_10 s3_10__MTG4P_10 CLK__MTG4P_10 s1_10__MTG4P_10 VDD__MTG4P_10 pmos w=0.6u l=0.28u 
MTG4N_10 s3_10__MTG4N_10 CLKB__MTG4N_10 s1_10__MTG4N_10 0 nmos w=0.3u l=0.28u ad=0.072p 

* Stage 11
MTG1P_11 Q10__MTG1P_11 CLK__MTG1P_11 m1_11__MTG1P_11 VDD__MTG1P_11 pmos w=1.1u l=0.28u 
MTG1N_11 Q10__MTG1N_11 CLKB__MTG1N_11 m1_11__MTG1N_11 0 nmos w=0.55u l=0.28u ad=0.132p 
MM1P_11 m2_11__MM1P_11 m1_11__MM1P_11 VDD__MM1P_11 VDD__MM1P_11 pmos w=1.1u l=0.28u 
MM1N_11 m2_11__MM1N_11 m1_11__MM1N_11 0 0 nmos w=0.55u l=0.28u ad=0.132p 
MM2P_11 m3_11__MM2P_11 m2_11__MM2P_11 VDD__MM2P_11 VDD__MM2P_11 pmos w=0.6u l=0.28u 
MM2N_11 m3_11__MM2N_11 m2_11__MM2N_11 0 0 nmos w=0.3u l=0.28u ad=0.072p 
MTG2P_11 m3_11__MTG2P_11 CLKB__MTG2P_11 m1_11__MTG2P_11 VDD__MTG2P_11 pmos w=0.6u l=0.28u 
MTG2N_11 m3_11__MTG2N_11 CLK__MTG2N_11 m1_11__MTG2N_11 0 nmos w=0.3u l=0.28u ad=0.072p 
MTG3P_11 m2_11__MTG3P_11 CLKB__MTG3P_11 s1_11__MTG3P_11 VDD__MTG3P_11 pmos w=1.1u l=0.28u 
MTG3N_11 m2_11__MTG3N_11 CLK__MTG3N_11 s1_11__MTG3N_11 0 nmos w=0.55u l=0.28u ad=0.132p 
MS1P_11 Q11__MS1P_11 s1_11__MS1P_11 VDD__MS1P_11 VDD__MS1P_11 pmos w=1.1u l=0.28u 
MS1N_11 Q11__MS1N_11 s1_11__MS1N_11 0 0 nmos w=0.55u l=0.28u ad=0.132p 
MS2P_11 s3_11__MS2P_11 Q11__MS2P_11 VDD__MS2P_11 VDD__MS2P_11 pmos w=0.6u l=0.28u 
MS2N_11 s3_11__MS2N_11 Q11__MS2N_11 0 0 nmos w=0.3u l=0.28u ad=0.072p 
MTG4P_11 s3_11__MTG4P_11 CLK__MTG4P_11 s1_11__MTG4P_11 VDD__MTG4P_11 pmos w=0.6u l=0.28u 
MTG4N_11 s3_11__MTG4N_11 CLKB__MTG4N_11 s1_11__MTG4N_11 0 nmos w=0.3u l=0.28u ad=0.072p 

* Stage 12
MTG1P_12 Q11__MTG1P_12 CLK__MTG1P_12 m1_12__MTG1P_12 VDD__MTG1P_12 pmos w=1.1u l=0.28u 
MTG1N_12 Q11__MTG1N_12 CLKB__MTG1N_12 m1_12__MTG1N_12 0 nmos w=0.55u l=0.28u ad=0.132p 
MM1P_12 m2_12__MM1P_12 m1_12__MM1P_12 VDD__MM1P_12 VDD__MM1P_12 pmos w=1.1u l=0.28u 
MM1N_12 m2_12__MM1N_12 m1_12__MM1N_12 0 0 nmos w=0.55u l=0.28u ad=0.132p 
MM2P_12 m3_12__MM2P_12 m2_12__MM2P_12 VDD__MM2P_12 VDD__MM2P_12 pmos w=0.6u l=0.28u 
MM2N_12 m3_12__MM2N_12 m2_12__MM2N_12 0 0 nmos w=0.3u l=0.28u ad=0.072p 
MTG2P_12 m3_12__MTG2P_12 CLKB__MTG2P_12 m1_12__MTG2P_12 VDD__MTG2P_12 pmos w=0.6u l=0.28u 
MTG2N_12 m3_12__MTG2N_12 CLK__MTG2N_12 m1_12__MTG2N_12 0 nmos w=0.3u l=0.28u ad=0.072p 
MTG3P_12 m2_12__MTG3P_12 CLKB__MTG3P_12 s1_12__MTG3P_12 VDD__MTG3P_12 pmos w=1.1u l=0.28u 
MTG3N_12 m2_12__MTG3N_12 CLK__MTG3N_12 s1_12__MTG3N_12 0 nmos w=0.55u l=0.28u ad=0.132p 
MS1P_12 Q12__MS1P_12 s1_12__MS1P_12 VDD__MS1P_12 VDD__MS1P_12 pmos w=1.1u l=0.28u 
MS1N_12 Q12__MS1N_12 s1_12__MS1N_12 0 0 nmos w=0.55u l=0.28u ad=0.132p 
MS2P_12 s3_12__MS2P_12 Q12__MS2P_12 VDD__MS2P_12 VDD__MS2P_12 pmos w=0.6u l=0.28u 
MS2N_12 s3_12__MS2N_12 Q12__MS2N_12 0 0 nmos w=0.3u l=0.28u ad=0.072p 
MTG4P_12 s3_12__MTG4P_12 CLK__MTG4P_12 s1_12__MTG4P_12 VDD__MTG4P_12 pmos w=0.6u l=0.28u 
MTG4N_12 s3_12__MTG4N_12 CLKB__MTG4N_12 s1_12__MTG4N_12 0 nmos w=0.3u l=0.28u ad=0.072p 

* Stage 13
MTG1P_13 Q12__MTG1P_13 CLK__MTG1P_13 m1_13__MTG1P_13 VDD__MTG1P_13 pmos w=1.1u l=0.28u 
MTG1N_13 Q12__MTG1N_13 CLKB__MTG1N_13 m1_13__MTG1N_13 0 nmos w=0.55u l=0.28u ad=0.132p 
MM1P_13 m2_13__MM1P_13 m1_13__MM1P_13 VDD__MM1P_13 VDD__MM1P_13 pmos w=1.1u l=0.28u 
MM1N_13 m2_13__MM1N_13 m1_13__MM1N_13 0 0 nmos w=0.55u l=0.28u ad=0.132p 
MM2P_13 m3_13__MM2P_13 m2_13__MM2P_13 VDD__MM2P_13 VDD__MM2P_13 pmos w=0.6u l=0.28u 
MM2N_13 m3_13__MM2N_13 m2_13__MM2N_13 0 0 nmos w=0.3u l=0.28u ad=0.072p 
MTG2P_13 m3_13__MTG2P_13 CLKB__MTG2P_13 m1_13__MTG2P_13 VDD__MTG2P_13 pmos w=0.6u l=0.28u 
MTG2N_13 m3_13__MTG2N_13 CLK__MTG2N_13 m1_13__MTG2N_13 0 nmos w=0.3u l=0.28u ad=0.072p 
MTG3P_13 m2_13__MTG3P_13 CLKB__MTG3P_13 s1_13__MTG3P_13 VDD__MTG3P_13 pmos w=1.1u l=0.28u 
MTG3N_13 m2_13__MTG3N_13 CLK__MTG3N_13 s1_13__MTG3N_13 0 nmos w=0.55u l=0.28u ad=0.132p 
MS1P_13 Q13__MS1P_13 s1_13__MS1P_13 VDD__MS1P_13 VDD__MS1P_13 pmos w=1.1u l=0.28u 
MS1N_13 Q13__MS1N_13 s1_13__MS1N_13 0 0 nmos w=0.55u l=0.28u ad=0.132p 
MS2P_13 s3_13__MS2P_13 Q13__MS2P_13 VDD__MS2P_13 VDD__MS2P_13 pmos w=0.6u l=0.28u 
MS2N_13 s3_13__MS2N_13 Q13__MS2N_13 0 0 nmos w=0.3u l=0.28u ad=0.072p 
MTG4P_13 s3_13__MTG4P_13 CLK__MTG4P_13 s1_13__MTG4P_13 VDD__MTG4P_13 pmos w=0.6u l=0.28u 
MTG4N_13 s3_13__MTG4N_13 CLKB__MTG4N_13 s1_13__MTG4N_13 0 nmos w=0.3u l=0.28u ad=0.072p 

* Stage 14
MTG1P_14 Q13__MTG1P_14 CLK__MTG1P_14 m1_14__MTG1P_14 VDD__MTG1P_14 pmos w=1.1u l=0.28u 
MTG1N_14 Q13__MTG1N_14 CLKB__MTG1N_14 m1_14__MTG1N_14 0 nmos w=0.55u l=0.28u ad=0.132p 
MM1P_14 m2_14__MM1P_14 m1_14__MM1P_14 VDD__MM1P_14 VDD__MM1P_14 pmos w=1.1u l=0.28u 
MM1N_14 m2_14__MM1N_14 m1_14__MM1N_14 0 0 nmos w=0.55u l=0.28u ad=0.132p 
MM2P_14 m3_14__MM2P_14 m2_14__MM2P_14 VDD__MM2P_14 VDD__MM2P_14 pmos w=0.6u l=0.28u 
MM2N_14 m3_14__MM2N_14 m2_14__MM2N_14 0 0 nmos w=0.3u l=0.28u ad=0.072p 
MTG2P_14 m3_14__MTG2P_14 CLKB__MTG2P_14 m1_14__MTG2P_14 VDD__MTG2P_14 pmos w=0.6u l=0.28u 
MTG2N_14 m3_14__MTG2N_14 CLK__MTG2N_14 m1_14__MTG2N_14 0 nmos w=0.3u l=0.28u ad=0.072p 
MTG3P_14 m2_14__MTG3P_14 CLKB__MTG3P_14 s1_14__MTG3P_14 VDD__MTG3P_14 pmos w=1.1u l=0.28u 
MTG3N_14 m2_14__MTG3N_14 CLK__MTG3N_14 s1_14__MTG3N_14 0 nmos w=0.55u l=0.28u ad=0.132p 
MS1P_14 Q14__MS1P_14 s1_14__MS1P_14 VDD__MS1P_14 VDD__MS1P_14 pmos w=1.1u l=0.28u 
MS1N_14 Q14__MS1N_14 s1_14__MS1N_14 0 0 nmos w=0.55u l=0.28u ad=0.132p 
MS2P_14 s3_14__MS2P_14 Q14__MS2P_14 VDD__MS2P_14 VDD__MS2P_14 pmos w=0.6u l=0.28u 
MS2N_14 s3_14__MS2N_14 Q14__MS2N_14 0 0 nmos w=0.3u l=0.28u ad=0.072p 
MTG4P_14 s3_14__MTG4P_14 CLK__MTG4P_14 s1_14__MTG4P_14 VDD__MTG4P_14 pmos w=0.6u l=0.28u 
MTG4N_14 s3_14__MTG4N_14 CLKB__MTG4N_14 s1_14__MTG4N_14 0 nmos w=0.3u l=0.28u ad=0.072p 

* Stage 15
MTG1P_15 Q14__MTG1P_15 CLK__MTG1P_15 m1_15__MTG1P_15 VDD__MTG1P_15 pmos w=1.1u l=0.28u 
MTG1N_15 Q14__MTG1N_15 CLKB__MTG1N_15 m1_15__MTG1N_15 0 nmos w=0.55u l=0.28u ad=0.132p 
MM1P_15 m2_15__MM1P_15 m1_15__MM1P_15 VDD__MM1P_15 VDD__MM1P_15 pmos w=1.1u l=0.28u 
MM1N_15 m2_15__MM1N_15 m1_15__MM1N_15 0 0 nmos w=0.55u l=0.28u ad=0.132p 
MM2P_15 m3_15__MM2P_15 m2_15__MM2P_15 VDD__MM2P_15 VDD__MM2P_15 pmos w=0.6u l=0.28u 
MM2N_15 m3_15__MM2N_15 m2_15__MM2N_15 0 0 nmos w=0.3u l=0.28u ad=0.072p 
MTG2P_15 m3_15__MTG2P_15 CLKB__MTG2P_15 m1_15__MTG2P_15 VDD__MTG2P_15 pmos w=0.6u l=0.28u 
MTG2N_15 m3_15__MTG2N_15 CLK__MTG2N_15 m1_15__MTG2N_15 0 nmos w=0.3u l=0.28u ad=0.072p 
MTG3P_15 m2_15__MTG3P_15 CLKB__MTG3P_15 s1_15__MTG3P_15 VDD__MTG3P_15 pmos w=1.1u l=0.28u 
MTG3N_15 m2_15__MTG3N_15 CLK__MTG3N_15 s1_15__MTG3N_15 0 nmos w=0.55u l=0.28u ad=0.132p 
MS1P_15 Q15__MS1P_15 s1_15__MS1P_15 VDD__MS1P_15 VDD__MS1P_15 pmos w=1.1u l=0.28u 
MS1N_15 Q15__MS1N_15 s1_15__MS1N_15 0 0 nmos w=0.55u l=0.28u ad=0.132p 
MS2P_15 s3_15__MS2P_15 Q15__MS2P_15 VDD__MS2P_15 VDD__MS2P_15 pmos w=0.6u l=0.28u 
MS2N_15 s3_15__MS2N_15 Q15__MS2N_15 0 0 nmos w=0.3u l=0.28u ad=0.072p 
MTG4P_15 s3_15__MTG4P_15 CLK__MTG4P_15 s1_15__MTG4P_15 VDD__MTG4P_15 pmos w=0.6u l=0.28u 
MTG4N_15 s3_15__MTG4N_15 CLKB__MTG4N_15 s1_15__MTG4N_15 0 nmos w=0.3u l=0.28u ad=0.072p 

* Stage 16
MTG1P_16 Q15__MTG1P_16 CLK__MTG1P_16 m1_16__MTG1P_16 VDD__MTG1P_16 pmos w=1.1u l=0.28u 
MTG1N_16 Q15__MTG1N_16 CLKB__MTG1N_16 m1_16__MTG1N_16 0 nmos w=0.55u l=0.28u ad=0.132p 
MM1P_16 m2_16__MM1P_16 m1_16__MM1P_16 VDD__MM1P_16 VDD__MM1P_16 pmos w=1.1u l=0.28u 
MM1N_16 m2_16__MM1N_16 m1_16__MM1N_16 0 0 nmos w=0.55u l=0.28u ad=0.132p 
MM2P_16 m3_16__MM2P_16 m2_16__MM2P_16 VDD__MM2P_16 VDD__MM2P_16 pmos w=0.6u l=0.28u 
MM2N_16 m3_16__MM2N_16 m2_16__MM2N_16 0 0 nmos w=0.3u l=0.28u ad=0.072p 
MTG2P_16 m3_16__MTG2P_16 CLKB__MTG2P_16 m1_16__MTG2P_16 VDD__MTG2P_16 pmos w=0.6u l=0.28u 
MTG2N_16 m3_16__MTG2N_16 CLK__MTG2N_16 m1_16__MTG2N_16 0 nmos w=0.3u l=0.28u ad=0.072p 
MTG3P_16 m2_16__MTG3P_16 CLKB__MTG3P_16 s1_16__MTG3P_16 VDD__MTG3P_16 pmos w=1.1u l=0.28u 
MTG3N_16 m2_16__MTG3N_16 CLK__MTG3N_16 s1_16__MTG3N_16 0 nmos w=0.55u l=0.28u ad=0.132p 
MS1P_16 Q16__MS1P_16 s1_16__MS1P_16 VDD__MS1P_16 VDD__MS1P_16 pmos w=1.1u l=0.28u 
MS1N_16 Q16__MS1N_16 s1_16__MS1N_16 0 0 nmos w=0.55u l=0.28u ad=0.132p 
MS2P_16 s3_16__MS2P_16 Q16__MS2P_16 VDD__MS2P_16 VDD__MS2P_16 pmos w=0.6u l=0.28u 
MS2N_16 s3_16__MS2N_16 Q16__MS2N_16 0 0 nmos w=0.3u l=0.28u ad=0.072p 
MTG4P_16 s3_16__MTG4P_16 CLK__MTG4P_16 s1_16__MTG4P_16 VDD__MTG4P_16 pmos w=0.6u l=0.28u 
MTG4N_16 s3_16__MTG4N_16 CLKB__MTG4N_16 s1_16__MTG4N_16 0 nmos w=0.3u l=0.28u ad=0.072p 

* Stage 17
MTG1P_17 Q16__MTG1P_17 CLK__MTG1P_17 m1_17__MTG1P_17 VDD__MTG1P_17 pmos w=1.1u l=0.28u 
MTG1N_17 Q16__MTG1N_17 CLKB__MTG1N_17 m1_17__MTG1N_17 0 nmos w=0.55u l=0.28u ad=0.132p 
MM1P_17 m2_17__MM1P_17 m1_17__MM1P_17 VDD__MM1P_17 VDD__MM1P_17 pmos w=1.1u l=0.28u 
MM1N_17 m2_17__MM1N_17 m1_17__MM1N_17 0 0 nmos w=0.55u l=0.28u ad=0.132p 
MM2P_17 m3_17__MM2P_17 m2_17__MM2P_17 VDD__MM2P_17 VDD__MM2P_17 pmos w=0.6u l=0.28u 
MM2N_17 m3_17__MM2N_17 m2_17__MM2N_17 0 0 nmos w=0.3u l=0.28u ad=0.072p 
MTG2P_17 m3_17__MTG2P_17 CLKB__MTG2P_17 m1_17__MTG2P_17 VDD__MTG2P_17 pmos w=0.6u l=0.28u 
MTG2N_17 m3_17__MTG2N_17 CLK__MTG2N_17 m1_17__MTG2N_17 0 nmos w=0.3u l=0.28u ad=0.072p 
MTG3P_17 m2_17__MTG3P_17 CLKB__MTG3P_17 s1_17__MTG3P_17 VDD__MTG3P_17 pmos w=1.1u l=0.28u 
MTG3N_17 m2_17__MTG3N_17 CLK__MTG3N_17 s1_17__MTG3N_17 0 nmos w=0.55u l=0.28u ad=0.132p 
MS1P_17 Q17__MS1P_17 s1_17__MS1P_17 VDD__MS1P_17 VDD__MS1P_17 pmos w=1.1u l=0.28u 
MS1N_17 Q17__MS1N_17 s1_17__MS1N_17 0 0 nmos w=0.55u l=0.28u ad=0.132p 
MS2P_17 s3_17__MS2P_17 Q17__MS2P_17 VDD__MS2P_17 VDD__MS2P_17 pmos w=0.6u l=0.28u 
MS2N_17 s3_17__MS2N_17 Q17__MS2N_17 0 0 nmos w=0.3u l=0.28u ad=0.072p 
MTG4P_17 s3_17__MTG4P_17 CLK__MTG4P_17 s1_17__MTG4P_17 VDD__MTG4P_17 pmos w=0.6u l=0.28u 
MTG4N_17 s3_17__MTG4N_17 CLKB__MTG4N_17 s1_17__MTG4N_17 0 nmos w=0.3u l=0.28u ad=0.072p 

* Stage 18
MTG1P_18 Q17__MTG1P_18 CLK__MTG1P_18 m1_18__MTG1P_18 VDD__MTG1P_18 pmos w=1.1u l=0.28u 
MTG1N_18 Q17__MTG1N_18 CLKB__MTG1N_18 m1_18__MTG1N_18 0 nmos w=0.55u l=0.28u ad=0.132p 
MM1P_18 m2_18__MM1P_18 m1_18__MM1P_18 VDD__MM1P_18 VDD__MM1P_18 pmos w=1.1u l=0.28u 
MM1N_18 m2_18__MM1N_18 m1_18__MM1N_18 0 0 nmos w=0.55u l=0.28u ad=0.132p 
MM2P_18 m3_18__MM2P_18 m2_18__MM2P_18 VDD__MM2P_18 VDD__MM2P_18 pmos w=0.6u l=0.28u 
MM2N_18 m3_18__MM2N_18 m2_18__MM2N_18 0 0 nmos w=0.3u l=0.28u ad=0.072p 
MTG2P_18 m3_18__MTG2P_18 CLKB__MTG2P_18 m1_18__MTG2P_18 VDD__MTG2P_18 pmos w=0.6u l=0.28u 
MTG2N_18 m3_18__MTG2N_18 CLK__MTG2N_18 m1_18__MTG2N_18 0 nmos w=0.3u l=0.28u ad=0.072p 
MTG3P_18 m2_18__MTG3P_18 CLKB__MTG3P_18 s1_18__MTG3P_18 VDD__MTG3P_18 pmos w=1.1u l=0.28u 
MTG3N_18 m2_18__MTG3N_18 CLK__MTG3N_18 s1_18__MTG3N_18 0 nmos w=0.55u l=0.28u ad=0.132p 
MS1P_18 Q18__MS1P_18 s1_18__MS1P_18 VDD__MS1P_18 VDD__MS1P_18 pmos w=1.1u l=0.28u 
MS1N_18 Q18__MS1N_18 s1_18__MS1N_18 0 0 nmos w=0.55u l=0.28u ad=0.132p 
MS2P_18 s3_18__MS2P_18 Q18__MS2P_18 VDD__MS2P_18 VDD__MS2P_18 pmos w=0.6u l=0.28u 
MS2N_18 s3_18__MS2N_18 Q18__MS2N_18 0 0 nmos w=0.3u l=0.28u ad=0.072p 
MTG4P_18 s3_18__MTG4P_18 CLK__MTG4P_18 s1_18__MTG4P_18 VDD__MTG4P_18 pmos w=0.6u l=0.28u 
MTG4N_18 s3_18__MTG4N_18 CLKB__MTG4N_18 s1_18__MTG4N_18 0 nmos w=0.3u l=0.28u ad=0.072p 

* Stage 19
MTG1P_19 Q18__MTG1P_19 CLK__MTG1P_19 m1_19__MTG1P_19 VDD__MTG1P_19 pmos w=1.1u l=0.28u 
MTG1N_19 Q18__MTG1N_19 CLKB__MTG1N_19 m1_19__MTG1N_19 0 nmos w=0.55u l=0.28u ad=0.132p 
MM1P_19 m2_19__MM1P_19 m1_19__MM1P_19 VDD__MM1P_19 VDD__MM1P_19 pmos w=1.1u l=0.28u 
MM1N_19 m2_19__MM1N_19 m1_19__MM1N_19 0 0 nmos w=0.55u l=0.28u ad=0.132p 
MM2P_19 m3_19__MM2P_19 m2_19__MM2P_19 VDD__MM2P_19 VDD__MM2P_19 pmos w=0.6u l=0.28u 
MM2N_19 m3_19__MM2N_19 m2_19__MM2N_19 0 0 nmos w=0.3u l=0.28u ad=0.072p 
MTG2P_19 m3_19__MTG2P_19 CLKB__MTG2P_19 m1_19__MTG2P_19 VDD__MTG2P_19 pmos w=0.6u l=0.28u 
MTG2N_19 m3_19__MTG2N_19 CLK__MTG2N_19 m1_19__MTG2N_19 0 nmos w=0.3u l=0.28u ad=0.072p 
MTG3P_19 m2_19__MTG3P_19 CLKB__MTG3P_19 s1_19__MTG3P_19 VDD__MTG3P_19 pmos w=1.1u l=0.28u 
MTG3N_19 m2_19__MTG3N_19 CLK__MTG3N_19 s1_19__MTG3N_19 0 nmos w=0.55u l=0.28u ad=0.132p 
MS1P_19 Q19__MS1P_19 s1_19__MS1P_19 VDD__MS1P_19 VDD__MS1P_19 pmos w=1.1u l=0.28u 
MS1N_19 Q19__MS1N_19 s1_19__MS1N_19 0 0 nmos w=0.55u l=0.28u ad=0.132p 
MS2P_19 s3_19__MS2P_19 Q19__MS2P_19 VDD__MS2P_19 VDD__MS2P_19 pmos w=0.6u l=0.28u 
MS2N_19 s3_19__MS2N_19 Q19__MS2N_19 0 0 nmos w=0.3u l=0.28u ad=0.072p 
MTG4P_19 s3_19__MTG4P_19 CLK__MTG4P_19 s1_19__MTG4P_19 VDD__MTG4P_19 pmos w=0.6u l=0.28u 
MTG4N_19 s3_19__MTG4N_19 CLKB__MTG4N_19 s1_19__MTG4N_19 0 nmos w=0.3u l=0.28u ad=0.072p 

* Stage 20
MTG1P_20 Q19__MTG1P_20 CLK__MTG1P_20 m1_20__MTG1P_20 VDD__MTG1P_20 pmos w=1.1u l=0.28u 
MTG1N_20 Q19__MTG1N_20 CLKB__MTG1N_20 m1_20__MTG1N_20 0 nmos w=0.55u l=0.28u ad=0.132p 
MM1P_20 m2_20__MM1P_20 m1_20__MM1P_20 VDD__MM1P_20 VDD__MM1P_20 pmos w=1.1u l=0.28u 
MM1N_20 m2_20__MM1N_20 m1_20__MM1N_20 0 0 nmos w=0.55u l=0.28u ad=0.132p 
MM2P_20 m3_20__MM2P_20 m2_20__MM2P_20 VDD__MM2P_20 VDD__MM2P_20 pmos w=0.6u l=0.28u 
MM2N_20 m3_20__MM2N_20 m2_20__MM2N_20 0 0 nmos w=0.3u l=0.28u ad=0.072p 
MTG2P_20 m3_20__MTG2P_20 CLKB__MTG2P_20 m1_20__MTG2P_20 VDD__MTG2P_20 pmos w=0.6u l=0.28u 
MTG2N_20 m3_20__MTG2N_20 CLK__MTG2N_20 m1_20__MTG2N_20 0 nmos w=0.3u l=0.28u ad=0.072p 
MTG3P_20 m2_20__MTG3P_20 CLKB__MTG3P_20 s1_20__MTG3P_20 VDD__MTG3P_20 pmos w=1.1u l=0.28u 
MTG3N_20 m2_20__MTG3N_20 CLK__MTG3N_20 s1_20__MTG3N_20 0 nmos w=0.55u l=0.28u ad=0.132p 
MS1P_20 Q20__MS1P_20 s1_20__MS1P_20 VDD__MS1P_20 VDD__MS1P_20 pmos w=1.1u l=0.28u 
MS1N_20 Q20__MS1N_20 s1_20__MS1N_20 0 0 nmos w=0.55u l=0.28u ad=0.132p 
MS2P_20 s3_20__MS2P_20 Q20__MS2P_20 VDD__MS2P_20 VDD__MS2P_20 pmos w=0.6u l=0.28u 
MS2N_20 s3_20__MS2N_20 Q20__MS2N_20 0 0 nmos w=0.3u l=0.28u ad=0.072p 
MTG4P_20 s3_20__MTG4P_20 CLK__MTG4P_20 s1_20__MTG4P_20 VDD__MTG4P_20 pmos w=0.6u l=0.28u 
MTG4N_20 s3_20__MTG4N_20 CLKB__MTG4N_20 s1_20__MTG4N_20 0 nmos w=0.3u l=0.28u ad=0.072p 

* Stage 21
MTG1P_21 Q20__MTG1P_21 CLK__MTG1P_21 m1_21__MTG1P_21 VDD__MTG1P_21 pmos w=1.1u l=0.28u 
MTG1N_21 Q20__MTG1N_21 CLKB__MTG1N_21 m1_21__MTG1N_21 0 nmos w=0.55u l=0.28u ad=0.132p 
MM1P_21 m2_21__MM1P_21 m1_21__MM1P_21 VDD__MM1P_21 VDD__MM1P_21 pmos w=1.1u l=0.28u 
MM1N_21 m2_21__MM1N_21 m1_21__MM1N_21 0 0 nmos w=0.55u l=0.28u ad=0.132p 
MM2P_21 m3_21__MM2P_21 m2_21__MM2P_21 VDD__MM2P_21 VDD__MM2P_21 pmos w=0.6u l=0.28u 
MM2N_21 m3_21__MM2N_21 m2_21__MM2N_21 0 0 nmos w=0.3u l=0.28u ad=0.072p 
MTG2P_21 m3_21__MTG2P_21 CLKB__MTG2P_21 m1_21__MTG2P_21 VDD__MTG2P_21 pmos w=0.6u l=0.28u 
MTG2N_21 m3_21__MTG2N_21 CLK__MTG2N_21 m1_21__MTG2N_21 0 nmos w=0.3u l=0.28u ad=0.072p 
MTG3P_21 m2_21__MTG3P_21 CLKB__MTG3P_21 s1_21__MTG3P_21 VDD__MTG3P_21 pmos w=1.1u l=0.28u 
MTG3N_21 m2_21__MTG3N_21 CLK__MTG3N_21 s1_21__MTG3N_21 0 nmos w=0.55u l=0.28u ad=0.132p 
MS1P_21 Q21__MS1P_21 s1_21__MS1P_21 VDD__MS1P_21 VDD__MS1P_21 pmos w=1.1u l=0.28u 
MS1N_21 Q21__MS1N_21 s1_21__MS1N_21 0 0 nmos w=0.55u l=0.28u ad=0.132p 
MS2P_21 s3_21__MS2P_21 Q21__MS2P_21 VDD__MS2P_21 VDD__MS2P_21 pmos w=0.6u l=0.28u 
MS2N_21 s3_21__MS2N_21 Q21__MS2N_21 0 0 nmos w=0.3u l=0.28u ad=0.072p 
MTG4P_21 s3_21__MTG4P_21 CLK__MTG4P_21 s1_21__MTG4P_21 VDD__MTG4P_21 pmos w=0.6u l=0.28u 
MTG4N_21 s3_21__MTG4N_21 CLKB__MTG4N_21 s1_21__MTG4N_21 0 nmos w=0.3u l=0.28u ad=0.072p 

* Stage 22
MTG1P_22 Q21__MTG1P_22 CLK__MTG1P_22 m1_22__MTG1P_22 VDD__MTG1P_22 pmos w=1.1u l=0.28u 
MTG1N_22 Q21__MTG1N_22 CLKB__MTG1N_22 m1_22__MTG1N_22 0 nmos w=0.55u l=0.28u ad=0.132p 
MM1P_22 m2_22__MM1P_22 m1_22__MM1P_22 VDD__MM1P_22 VDD__MM1P_22 pmos w=1.1u l=0.28u 
MM1N_22 m2_22__MM1N_22 m1_22__MM1N_22 0 0 nmos w=0.55u l=0.28u ad=0.132p 
MM2P_22 m3_22__MM2P_22 m2_22__MM2P_22 VDD__MM2P_22 VDD__MM2P_22 pmos w=0.6u l=0.28u 
MM2N_22 m3_22__MM2N_22 m2_22__MM2N_22 0 0 nmos w=0.3u l=0.28u ad=0.072p 
MTG2P_22 m3_22__MTG2P_22 CLKB__MTG2P_22 m1_22__MTG2P_22 VDD__MTG2P_22 pmos w=0.6u l=0.28u 
MTG2N_22 m3_22__MTG2N_22 CLK__MTG2N_22 m1_22__MTG2N_22 0 nmos w=0.3u l=0.28u ad=0.072p 