* 64-bit Ripple Carry Adder - Generated Netlist
* Models
.model nmos nmos (level=14 version=4.8.2)
.model pmos pmos (level=14 version=4.8.2)

* Simulation flags
.options acct
*.options num_threads=32
.sparse
.output Results/64bit_full_adder_28t.raw

Vdd VDD 0 1.8
M1 VDD A0 N_bit0_1 VDD pmos l=1u w=4u
M2 N_bit0_1 B0 N_bit0_cbar VDD pmos l=1u w=4u
M3 VDD A0 N_bit0_2 VDD pmos l=1u w=4u
M4 N_bit0_2 Ci N_bit0_cbar VDD pmos l=1u w=4u
M5 VDD B0 N_bit0_2 VDD pmos l=1u w=4u
M6 VDD N_bit0_cbar C0 VDD pmos l=1u w=2u
M25 C0 N_bit0_cbar 0 0 nmos l=1u w=1u
M20 N_bit0_9 B0 0 0 nmos l=1u w=2u
M21 N_bit0_9 A0 0 0 nmos l=1u w=2u
M22 N_bit0_10 A0 0 0 nmos l=1u w=2u
M23 N_bit0_cbar B0 N_bit0_10 0 nmos l=1u w=2u
M24 N_bit0_cbar Ci N_bit0_9 0 nmos l=1u w=2u
M7 VDD A0 N_bit0_3 VDD pmos l=1u w=4u
M8 VDD B0 N_bit0_3 VDD pmos l=1u w=4u
M9 VDD Ci N_bit0_3 VDD pmos l=1u w=4u
M10 VDD A0 N_bit0_4 VDD pmos l=1u w=8u
M11 N_bit0_4 B0 N_bit0_5 VDD pmos l=1u w=8u
M12 N_bit0_5 Ci N_bit0_sumbar VDD pmos l=1u w=8u
M26 N_bit0_3 N_bit0_cbar N_bit0_sumbar VDD pmos l=1u w=4u
M13 N_bit0_sumbar Ci N_bit0_6 0 nmos l=1u w=8u
M14 N_bit0_6 B0 N_bit0_7 0 nmos l=1u w=8u
M15 N_bit0_7 A0 0 0 nmos l=1u w=8u
M16 N_bit0_8 Ci 0 0 nmos l=1u w=2u
M17 N_bit0_8 B0 0 0 nmos l=1u w=2u
M18 N_bit0_8 A0 0 0 nmos l=1u w=2u
M19 N_bit0_sumbar N_bit0_cbar N_bit0_8 0 nmos l=1u w=2u
M27 VDD N_bit0_sumbar SUM0 VDD pmos l=1u w=2u
M28 SUM0 N_bit0_sumbar 0 0 nmos l=1u w=1u
C0_sum SUM0 0 1p
C0_co C0 0 1p
M29 VDD A1 N_bit1_1 VDD pmos l=1u w=4u
M30 N_bit1_1 B1 N_bit1_cbar VDD pmos l=1u w=4u
M31 VDD A1 N_bit1_2 VDD pmos l=1u w=4u
M32 N_bit1_2 C0 N_bit1_cbar VDD pmos l=1u w=4u
M33 VDD B1 N_bit1_2 VDD pmos l=1u w=4u
M34 VDD N_bit1_cbar C1 VDD pmos l=1u w=2u
M53 C1 N_bit1_cbar 0 0 nmos l=1u w=1u
M48 N_bit1_9 B1 0 0 nmos l=1u w=2u
M49 N_bit1_9 A1 0 0 nmos l=1u w=2u
M50 N_bit1_10 A1 0 0 nmos l=1u w=2u
M51 N_bit1_cbar B1 N_bit1_10 0 nmos l=1u w=2u
M52 N_bit1_cbar C0 N_bit1_9 0 nmos l=1u w=2u
M35 VDD A1 N_bit1_3 VDD pmos l=1u w=4u
M36 VDD B1 N_bit1_3 VDD pmos l=1u w=4u
M37 VDD C0 N_bit1_3 VDD pmos l=1u w=4u
M38 VDD A1 N_bit1_4 VDD pmos l=1u w=8u
M39 N_bit1_4 B1 N_bit1_5 VDD pmos l=1u w=8u
M40 N_bit1_5 C0 N_bit1_sumbar VDD pmos l=1u w=8u
M54 N_bit1_3 N_bit1_cbar N_bit1_sumbar VDD pmos l=1u w=4u
M41 N_bit1_sumbar C0 N_bit1_6 0 nmos l=1u w=8u
M42 N_bit1_6 B1 N_bit1_7 0 nmos l=1u w=8u
M43 N_bit1_7 A1 0 0 nmos l=1u w=8u
M44 N_bit1_8 C0 0 0 nmos l=1u w=2u
M45 N_bit1_8 B1 0 0 nmos l=1u w=2u
M46 N_bit1_8 A1 0 0 nmos l=1u w=2u
M47 N_bit1_sumbar N_bit1_cbar N_bit1_8 0 nmos l=1u w=2u
M55 VDD N_bit1_sumbar SUM1 VDD pmos l=1u w=2u
M56 SUM1 N_bit1_sumbar 0 0 nmos l=1u w=1u
C1_sum SUM1 0 1p
C1_co C1 0 1p
M57 VDD A2 N_bit2_1 VDD pmos l=1u w=4u
M58 N_bit2_1 B2 N_bit2_cbar VDD pmos l=1u w=4u
M59 VDD A2 N_bit2_2 VDD pmos l=1u w=4u
M60 N_bit2_2 C1 N_bit2_cbar VDD pmos l=1u w=4u
M61 VDD B2 N_bit2_2 VDD pmos l=1u w=4u
M62 VDD N_bit2_cbar C2 VDD pmos l=1u w=2u
M81 C2 N_bit2_cbar 0 0 nmos l=1u w=1u
M76 N_bit2_9 B2 0 0 nmos l=1u w=2u
M77 N_bit2_9 A2 0 0 nmos l=1u w=2u
M78 N_bit2_10 A2 0 0 nmos l=1u w=2u
M79 N_bit2_cbar B2 N_bit2_10 0 nmos l=1u w=2u
M80 N_bit2_cbar C1 N_bit2_9 0 nmos l=1u w=2u
M63 VDD A2 N_bit2_3 VDD pmos l=1u w=4u
M64 VDD B2 N_bit2_3 VDD pmos l=1u w=4u
M65 VDD C1 N_bit2_3 VDD pmos l=1u w=4u
M66 VDD A2 N_bit2_4 VDD pmos l=1u w=8u
M67 N_bit2_4 B2 N_bit2_5 VDD pmos l=1u w=8u
M68 N_bit2_5 C1 N_bit2_sumbar VDD pmos l=1u w=8u
M82 N_bit2_3 N_bit2_cbar N_bit2_sumbar VDD pmos l=1u w=4u
M69 N_bit2_sumbar C1 N_bit2_6 0 nmos l=1u w=8u
M70 N_bit2_6 B2 N_bit2_7 0 nmos l=1u w=8u
M71 N_bit2_7 A2 0 0 nmos l=1u w=8u
M72 N_bit2_8 C1 0 0 nmos l=1u w=2u
M73 N_bit2_8 B2 0 0 nmos l=1u w=2u
M74 N_bit2_8 A2 0 0 nmos l=1u w=2u
M75 N_bit2_sumbar N_bit2_cbar N_bit2_8 0 nmos l=1u w=2u
M83 VDD N_bit2_sumbar SUM2 VDD pmos l=1u w=2u
M84 SUM2 N_bit2_sumbar 0 0 nmos l=1u w=1u
C2_sum SUM2 0 1p
C2_co C2 0 1p
M85 VDD A3 N_bit3_1 VDD pmos l=1u w=4u
M86 N_bit3_1 B3 N_bit3_cbar VDD pmos l=1u w=4u
M87 VDD A3 N_bit3_2 VDD pmos l=1u w=4u
M88 N_bit3_2 C2 N_bit3_cbar VDD pmos l=1u w=4u
M89 VDD B3 N_bit3_2 VDD pmos l=1u w=4u
M90 VDD N_bit3_cbar C3 VDD pmos l=1u w=2u
M109 C3 N_bit3_cbar 0 0 nmos l=1u w=1u
M104 N_bit3_9 B3 0 0 nmos l=1u w=2u
M105 N_bit3_9 A3 0 0 nmos l=1u w=2u
M106 N_bit3_10 A3 0 0 nmos l=1u w=2u
M107 N_bit3_cbar B3 N_bit3_10 0 nmos l=1u w=2u
M108 N_bit3_cbar C2 N_bit3_9 0 nmos l=1u w=2u
M91 VDD A3 N_bit3_3 VDD pmos l=1u w=4u
M92 VDD B3 N_bit3_3 VDD pmos l=1u w=4u
M93 VDD C2 N_bit3_3 VDD pmos l=1u w=4u
M94 VDD A3 N_bit3_4 VDD pmos l=1u w=8u
M95 N_bit3_4 B3 N_bit3_5 VDD pmos l=1u w=8u
M96 N_bit3_5 C2 N_bit3_sumbar VDD pmos l=1u w=8u
M110 N_bit3_3 N_bit3_cbar N_bit3_sumbar VDD pmos l=1u w=4u
M97 N_bit3_sumbar C2 N_bit3_6 0 nmos l=1u w=8u
M98 N_bit3_6 B3 N_bit3_7 0 nmos l=1u w=8u
M99 N_bit3_7 A3 0 0 nmos l=1u w=8u
M100 N_bit3_8 C2 0 0 nmos l=1u w=2u
M101 N_bit3_8 B3 0 0 nmos l=1u w=2u
M102 N_bit3_8 A3 0 0 nmos l=1u w=2u
M103 N_bit3_sumbar N_bit3_cbar N_bit3_8 0 nmos l=1u w=2u
M111 VDD N_bit3_sumbar SUM3 VDD pmos l=1u w=2u
M112 SUM3 N_bit3_sumbar 0 0 nmos l=1u w=1u
C3_sum SUM3 0 1p
C3_co C3 0 1p
M113 VDD A4 N_bit4_1 VDD pmos l=1u w=4u
M114 N_bit4_1 B4 N_bit4_cbar VDD pmos l=1u w=4u
M115 VDD A4 N_bit4_2 VDD pmos l=1u w=4u
M116 N_bit4_2 C3 N_bit4_cbar VDD pmos l=1u w=4u
M117 VDD B4 N_bit4_2 VDD pmos l=1u w=4u
M118 VDD N_bit4_cbar C4 VDD pmos l=1u w=2u
M137 C4 N_bit4_cbar 0 0 nmos l=1u w=1u
M132 N_bit4_9 B4 0 0 nmos l=1u w=2u
M133 N_bit4_9 A4 0 0 nmos l=1u w=2u
M134 N_bit4_10 A4 0 0 nmos l=1u w=2u
M135 N_bit4_cbar B4 N_bit4_10 0 nmos l=1u w=2u
M136 N_bit4_cbar C3 N_bit4_9 0 nmos l=1u w=2u
M119 VDD A4 N_bit4_3 VDD pmos l=1u w=4u
M120 VDD B4 N_bit4_3 VDD pmos l=1u w=4u
M121 VDD C3 N_bit4_3 VDD pmos l=1u w=4u
M122 VDD A4 N_bit4_4 VDD pmos l=1u w=8u
M123 N_bit4_4 B4 N_bit4_5 VDD pmos l=1u w=8u
M124 N_bit4_5 C3 N_bit4_sumbar VDD pmos l=1u w=8u
M138 N_bit4_3 N_bit4_cbar N_bit4_sumbar VDD pmos l=1u w=4u
M125 N_bit4_sumbar C3 N_bit4_6 0 nmos l=1u w=8u
M126 N_bit4_6 B4 N_bit4_7 0 nmos l=1u w=8u
M127 N_bit4_7 A4 0 0 nmos l=1u w=8u
M128 N_bit4_8 C3 0 0 nmos l=1u w=2u
M129 N_bit4_8 B4 0 0 nmos l=1u w=2u
M130 N_bit4_8 A4 0 0 nmos l=1u w=2u
M131 N_bit4_sumbar N_bit4_cbar N_bit4_8 0 nmos l=1u w=2u
M139 VDD N_bit4_sumbar SUM4 VDD pmos l=1u w=2u
M140 SUM4 N_bit4_sumbar 0 0 nmos l=1u w=1u
C4_sum SUM4 0 1p
C4_co C4 0 1p
M141 VDD A5 N_bit5_1 VDD pmos l=1u w=4u
M142 N_bit5_1 B5 N_bit5_cbar VDD pmos l=1u w=4u
M143 VDD A5 N_bit5_2 VDD pmos l=1u w=4u
M144 N_bit5_2 C4 N_bit5_cbar VDD pmos l=1u w=4u
M145 VDD B5 N_bit5_2 VDD pmos l=1u w=4u
M146 VDD N_bit5_cbar C5 VDD pmos l=1u w=2u
M165 C5 N_bit5_cbar 0 0 nmos l=1u w=1u
M160 N_bit5_9 B5 0 0 nmos l=1u w=2u
M161 N_bit5_9 A5 0 0 nmos l=1u w=2u
M162 N_bit5_10 A5 0 0 nmos l=1u w=2u
M163 N_bit5_cbar B5 N_bit5_10 0 nmos l=1u w=2u
M164 N_bit5_cbar C4 N_bit5_9 0 nmos l=1u w=2u
M147 VDD A5 N_bit5_3 VDD pmos l=1u w=4u
M148 VDD B5 N_bit5_3 VDD pmos l=1u w=4u
M149 VDD C4 N_bit5_3 VDD pmos l=1u w=4u
M150 VDD A5 N_bit5_4 VDD pmos l=1u w=8u
M151 N_bit5_4 B5 N_bit5_5 VDD pmos l=1u w=8u
M152 N_bit5_5 C4 N_bit5_sumbar VDD pmos l=1u w=8u
M166 N_bit5_3 N_bit5_cbar N_bit5_sumbar VDD pmos l=1u w=4u
M153 N_bit5_sumbar C4 N_bit5_6 0 nmos l=1u w=8u
M154 N_bit5_6 B5 N_bit5_7 0 nmos l=1u w=8u
M155 N_bit5_7 A5 0 0 nmos l=1u w=8u
M156 N_bit5_8 C4 0 0 nmos l=1u w=2u
M157 N_bit5_8 B5 0 0 nmos l=1u w=2u
M158 N_bit5_8 A5 0 0 nmos l=1u w=2u
M159 N_bit5_sumbar N_bit5_cbar N_bit5_8 0 nmos l=1u w=2u
M167 VDD N_bit5_sumbar SUM5 VDD pmos l=1u w=2u
M168 SUM5 N_bit5_sumbar 0 0 nmos l=1u w=1u
C5_sum SUM5 0 1p
C5_co C5 0 1p
M169 VDD A6 N_bit6_1 VDD pmos l=1u w=4u
M170 N_bit6_1 B6 N_bit6_cbar VDD pmos l=1u w=4u
M171 VDD A6 N_bit6_2 VDD pmos l=1u w=4u
M172 N_bit6_2 C5 N_bit6_cbar VDD pmos l=1u w=4u
M173 VDD B6 N_bit6_2 VDD pmos l=1u w=4u
M174 VDD N_bit6_cbar C6 VDD pmos l=1u w=2u
M193 C6 N_bit6_cbar 0 0 nmos l=1u w=1u
M188 N_bit6_9 B6 0 0 nmos l=1u w=2u
M189 N_bit6_9 A6 0 0 nmos l=1u w=2u
M190 N_bit6_10 A6 0 0 nmos l=1u w=2u
M191 N_bit6_cbar B6 N_bit6_10 0 nmos l=1u w=2u
M192 N_bit6_cbar C5 N_bit6_9 0 nmos l=1u w=2u
M175 VDD A6 N_bit6_3 VDD pmos l=1u w=4u
M176 VDD B6 N_bit6_3 VDD pmos l=1u w=4u
M177 VDD C5 N_bit6_3 VDD pmos l=1u w=4u
M178 VDD A6 N_bit6_4 VDD pmos l=1u w=8u
M179 N_bit6_4 B6 N_bit6_5 VDD pmos l=1u w=8u
M180 N_bit6_5 C5 N_bit6_sumbar VDD pmos l=1u w=8u
M194 N_bit6_3 N_bit6_cbar N_bit6_sumbar VDD pmos l=1u w=4u
M181 N_bit6_sumbar C5 N_bit6_6 0 nmos l=1u w=8u
M182 N_bit6_6 B6 N_bit6_7 0 nmos l=1u w=8u
M183 N_bit6_7 A6 0 0 nmos l=1u w=8u
M184 N_bit6_8 C5 0 0 nmos l=1u w=2u
M185 N_bit6_8 B6 0 0 nmos l=1u w=2u
M186 N_bit6_8 A6 0 0 nmos l=1u w=2u
M187 N_bit6_sumbar N_bit6_cbar N_bit6_8 0 nmos l=1u w=2u
M195 VDD N_bit6_sumbar SUM6 VDD pmos l=1u w=2u
M196 SUM6 N_bit6_sumbar 0 0 nmos l=1u w=1u
C6_sum SUM6 0 1p
C6_co C6 0 1p
M197 VDD A7 N_bit7_1 VDD pmos l=1u w=4u
M198 N_bit7_1 B7 N_bit7_cbar VDD pmos l=1u w=4u
M199 VDD A7 N_bit7_2 VDD pmos l=1u w=4u
M200 N_bit7_2 C6 N_bit7_cbar VDD pmos l=1u w=4u
M201 VDD B7 N_bit7_2 VDD pmos l=1u w=4u
M202 VDD N_bit7_cbar C7 VDD pmos l=1u w=2u
M221 C7 N_bit7_cbar 0 0 nmos l=1u w=1u
M216 N_bit7_9 B7 0 0 nmos l=1u w=2u
M217 N_bit7_9 A7 0 0 nmos l=1u w=2u
M218 N_bit7_10 A7 0 0 nmos l=1u w=2u
M219 N_bit7_cbar B7 N_bit7_10 0 nmos l=1u w=2u
M220 N_bit7_cbar C6 N_bit7_9 0 nmos l=1u w=2u
M203 VDD A7 N_bit7_3 VDD pmos l=1u w=4u
M204 VDD B7 N_bit7_3 VDD pmos l=1u w=4u
M205 VDD C6 N_bit7_3 VDD pmos l=1u w=4u
M206 VDD A7 N_bit7_4 VDD pmos l=1u w=8u
M207 N_bit7_4 B7 N_bit7_5 VDD pmos l=1u w=8u
M208 N_bit7_5 C6 N_bit7_sumbar VDD pmos l=1u w=8u
M222 N_bit7_3 N_bit7_cbar N_bit7_sumbar VDD pmos l=1u w=4u
M209 N_bit7_sumbar C6 N_bit7_6 0 nmos l=1u w=8u
M210 N_bit7_6 B7 N_bit7_7 0 nmos l=1u w=8u
M211 N_bit7_7 A7 0 0 nmos l=1u w=8u
M212 N_bit7_8 C6 0 0 nmos l=1u w=2u
M213 N_bit7_8 B7 0 0 nmos l=1u w=2u
M214 N_bit7_8 A7 0 0 nmos l=1u w=2u
M215 N_bit7_sumbar N_bit7_cbar N_bit7_8 0 nmos l=1u w=2u
M223 VDD N_bit7_sumbar SUM7 VDD pmos l=1u w=2u
M224 SUM7 N_bit7_sumbar 0 0 nmos l=1u w=1u
C7_sum SUM7 0 1p
C7_co C7 0 1p
M225 VDD A8 N_bit8_1 VDD pmos l=1u w=4u
M226 N_bit8_1 B8 N_bit8_cbar VDD pmos l=1u w=4u
M227 VDD A8 N_bit8_2 VDD pmos l=1u w=4u
M228 N_bit8_2 C7 N_bit8_cbar VDD pmos l=1u w=4u
M229 VDD B8 N_bit8_2 VDD pmos l=1u w=4u
M230 VDD N_bit8_cbar C8 VDD pmos l=1u w=2u
M249 C8 N_bit8_cbar 0 0 nmos l=1u w=1u
M244 N_bit8_9 B8 0 0 nmos l=1u w=2u
M245 N_bit8_9 A8 0 0 nmos l=1u w=2u
M246 N_bit8_10 A8 0 0 nmos l=1u w=2u
M247 N_bit8_cbar B8 N_bit8_10 0 nmos l=1u w=2u
M248 N_bit8_cbar C7 N_bit8_9 0 nmos l=1u w=2u
M231 VDD A8 N_bit8_3 VDD pmos l=1u w=4u
M232 VDD B8 N_bit8_3 VDD pmos l=1u w=4u
M233 VDD C7 N_bit8_3 VDD pmos l=1u w=4u
M234 VDD A8 N_bit8_4 VDD pmos l=1u w=8u
M235 N_bit8_4 B8 N_bit8_5 VDD pmos l=1u w=8u
M236 N_bit8_5 C7 N_bit8_sumbar VDD pmos l=1u w=8u
M250 N_bit8_3 N_bit8_cbar N_bit8_sumbar VDD pmos l=1u w=4u
M237 N_bit8_sumbar C7 N_bit8_6 0 nmos l=1u w=8u
M238 N_bit8_6 B8 N_bit8_7 0 nmos l=1u w=8u
M239 N_bit8_7 A8 0 0 nmos l=1u w=8u
M240 N_bit8_8 C7 0 0 nmos l=1u w=2u
M241 N_bit8_8 B8 0 0 nmos l=1u w=2u
M242 N_bit8_8 A8 0 0 nmos l=1u w=2u
M243 N_bit8_sumbar N_bit8_cbar N_bit8_8 0 nmos l=1u w=2u
M251 VDD N_bit8_sumbar SUM8 VDD pmos l=1u w=2u
M252 SUM8 N_bit8_sumbar 0 0 nmos l=1u w=1u
C8_sum SUM8 0 1p
C8_co C8 0 1p
M253 VDD A9 N_bit9_1 VDD pmos l=1u w=4u
M254 N_bit9_1 B9 N_bit9_cbar VDD pmos l=1u w=4u
M255 VDD A9 N_bit9_2 VDD pmos l=1u w=4u
M256 N_bit9_2 C8 N_bit9_cbar VDD pmos l=1u w=4u
M257 VDD B9 N_bit9_2 VDD pmos l=1u w=4u
M258 VDD N_bit9_cbar C9 VDD pmos l=1u w=2u
M277 C9 N_bit9_cbar 0 0 nmos l=1u w=1u
M272 N_bit9_9 B9 0 0 nmos l=1u w=2u
M273 N_bit9_9 A9 0 0 nmos l=1u w=2u
M274 N_bit9_10 A9 0 0 nmos l=1u w=2u
M275 N_bit9_cbar B9 N_bit9_10 0 nmos l=1u w=2u
M276 N_bit9_cbar C8 N_bit9_9 0 nmos l=1u w=2u
M259 VDD A9 N_bit9_3 VDD pmos l=1u w=4u
M260 VDD B9 N_bit9_3 VDD pmos l=1u w=4u
M261 VDD C8 N_bit9_3 VDD pmos l=1u w=4u
M262 VDD A9 N_bit9_4 VDD pmos l=1u w=8u
M263 N_bit9_4 B9 N_bit9_5 VDD pmos l=1u w=8u
M264 N_bit9_5 C8 N_bit9_sumbar VDD pmos l=1u w=8u
M278 N_bit9_3 N_bit9_cbar N_bit9_sumbar VDD pmos l=1u w=4u
M265 N_bit9_sumbar C8 N_bit9_6 0 nmos l=1u w=8u
M266 N_bit9_6 B9 N_bit9_7 0 nmos l=1u w=8u
M267 N_bit9_7 A9 0 0 nmos l=1u w=8u
M268 N_bit9_8 C8 0 0 nmos l=1u w=2u
M269 N_bit9_8 B9 0 0 nmos l=1u w=2u
M270 N_bit9_8 A9 0 0 nmos l=1u w=2u
M271 N_bit9_sumbar N_bit9_cbar N_bit9_8 0 nmos l=1u w=2u
M279 VDD N_bit9_sumbar SUM9 VDD pmos l=1u w=2u
M280 SUM9 N_bit9_sumbar 0 0 nmos l=1u w=1u
C9_sum SUM9 0 1p
C9_co C9 0 1p
M281 VDD A10 N_bit10_1 VDD pmos l=1u w=4u
M282 N_bit10_1 B10 N_bit10_cbar VDD pmos l=1u w=4u
M283 VDD A10 N_bit10_2 VDD pmos l=1u w=4u
M284 N_bit10_2 C9 N_bit10_cbar VDD pmos l=1u w=4u
M285 VDD B10 N_bit10_2 VDD pmos l=1u w=4u
M286 VDD N_bit10_cbar C10 VDD pmos l=1u w=2u
M305 C10 N_bit10_cbar 0 0 nmos l=1u w=1u
M300 N_bit10_9 B10 0 0 nmos l=1u w=2u
M301 N_bit10_9 A10 0 0 nmos l=1u w=2u
M302 N_bit10_10 A10 0 0 nmos l=1u w=2u
M303 N_bit10_cbar B10 N_bit10_10 0 nmos l=1u w=2u
M304 N_bit10_cbar C9 N_bit10_9 0 nmos l=1u w=2u
M287 VDD A10 N_bit10_3 VDD pmos l=1u w=4u
M288 VDD B10 N_bit10_3 VDD pmos l=1u w=4u
M289 VDD C9 N_bit10_3 VDD pmos l=1u w=4u
M290 VDD A10 N_bit10_4 VDD pmos l=1u w=8u
M291 N_bit10_4 B10 N_bit10_5 VDD pmos l=1u w=8u
M292 N_bit10_5 C9 N_bit10_sumbar VDD pmos l=1u w=8u
M306 N_bit10_3 N_bit10_cbar N_bit10_sumbar VDD pmos l=1u w=4u
M293 N_bit10_sumbar C9 N_bit10_6 0 nmos l=1u w=8u
M294 N_bit10_6 B10 N_bit10_7 0 nmos l=1u w=8u
M295 N_bit10_7 A10 0 0 nmos l=1u w=8u
M296 N_bit10_8 C9 0 0 nmos l=1u w=2u
M297 N_bit10_8 B10 0 0 nmos l=1u w=2u
M298 N_bit10_8 A10 0 0 nmos l=1u w=2u
M299 N_bit10_sumbar N_bit10_cbar N_bit10_8 0 nmos l=1u w=2u
M307 VDD N_bit10_sumbar SUM10 VDD pmos l=1u w=2u
M308 SUM10 N_bit10_sumbar 0 0 nmos l=1u w=1u
C10_sum SUM10 0 1p
C10_co C10 0 1p
M309 VDD A11 N_bit11_1 VDD pmos l=1u w=4u
M310 N_bit11_1 B11 N_bit11_cbar VDD pmos l=1u w=4u
M311 VDD A11 N_bit11_2 VDD pmos l=1u w=4u
M312 N_bit11_2 C10 N_bit11_cbar VDD pmos l=1u w=4u
M313 VDD B11 N_bit11_2 VDD pmos l=1u w=4u
M314 VDD N_bit11_cbar C11 VDD pmos l=1u w=2u
M333 C11 N_bit11_cbar 0 0 nmos l=1u w=1u
M328 N_bit11_9 B11 0 0 nmos l=1u w=2u
M329 N_bit11_9 A11 0 0 nmos l=1u w=2u
M330 N_bit11_10 A11 0 0 nmos l=1u w=2u
M331 N_bit11_cbar B11 N_bit11_10 0 nmos l=1u w=2u
M332 N_bit11_cbar C10 N_bit11_9 0 nmos l=1u w=2u
M315 VDD A11 N_bit11_3 VDD pmos l=1u w=4u
M316 VDD B11 N_bit11_3 VDD pmos l=1u w=4u
M317 VDD C10 N_bit11_3 VDD pmos l=1u w=4u
M318 VDD A11 N_bit11_4 VDD pmos l=1u w=8u
M319 N_bit11_4 B11 N_bit11_5 VDD pmos l=1u w=8u
M320 N_bit11_5 C10 N_bit11_sumbar VDD pmos l=1u w=8u
M334 N_bit11_3 N_bit11_cbar N_bit11_sumbar VDD pmos l=1u w=4u
M321 N_bit11_sumbar C10 N_bit11_6 0 nmos l=1u w=8u
M322 N_bit11_6 B11 N_bit11_7 0 nmos l=1u w=8u
M323 N_bit11_7 A11 0 0 nmos l=1u w=8u
M324 N_bit11_8 C10 0 0 nmos l=1u w=2u
M325 N_bit11_8 B11 0 0 nmos l=1u w=2u
M326 N_bit11_8 A11 0 0 nmos l=1u w=2u
M327 N_bit11_sumbar N_bit11_cbar N_bit11_8 0 nmos l=1u w=2u
M335 VDD N_bit11_sumbar SUM11 VDD pmos l=1u w=2u
M336 SUM11 N_bit11_sumbar 0 0 nmos l=1u w=1u
C11_sum SUM11 0 1p
C11_co C11 0 1p
M337 VDD A12 N_bit12_1 VDD pmos l=1u w=4u
M338 N_bit12_1 B12 N_bit12_cbar VDD pmos l=1u w=4u
M339 VDD A12 N_bit12_2 VDD pmos l=1u w=4u
M340 N_bit12_2 C11 N_bit12_cbar VDD pmos l=1u w=4u
M341 VDD B12 N_bit12_2 VDD pmos l=1u w=4u
M342 VDD N_bit12_cbar C12 VDD pmos l=1u w=2u
M361 C12 N_bit12_cbar 0 0 nmos l=1u w=1u
M356 N_bit12_9 B12 0 0 nmos l=1u w=2u
M357 N_bit12_9 A12 0 0 nmos l=1u w=2u
M358 N_bit12_10 A12 0 0 nmos l=1u w=2u
M359 N_bit12_cbar B12 N_bit12_10 0 nmos l=1u w=2u
M360 N_bit12_cbar C11 N_bit12_9 0 nmos l=1u w=2u
M343 VDD A12 N_bit12_3 VDD pmos l=1u w=4u
M344 VDD B12 N_bit12_3 VDD pmos l=1u w=4u
M345 VDD C11 N_bit12_3 VDD pmos l=1u w=4u
M346 VDD A12 N_bit12_4 VDD pmos l=1u w=8u
M347 N_bit12_4 B12 N_bit12_5 VDD pmos l=1u w=8u
M348 N_bit12_5 C11 N_bit12_sumbar VDD pmos l=1u w=8u
M362 N_bit12_3 N_bit12_cbar N_bit12_sumbar VDD pmos l=1u w=4u
M349 N_bit12_sumbar C11 N_bit12_6 0 nmos l=1u w=8u
M350 N_bit12_6 B12 N_bit12_7 0 nmos l=1u w=8u
M351 N_bit12_7 A12 0 0 nmos l=1u w=8u
M352 N_bit12_8 C11 0 0 nmos l=1u w=2u
M353 N_bit12_8 B12 0 0 nmos l=1u w=2u
M354 N_bit12_8 A12 0 0 nmos l=1u w=2u
M355 N_bit12_sumbar N_bit12_cbar N_bit12_8 0 nmos l=1u w=2u
M363 VDD N_bit12_sumbar SUM12 VDD pmos l=1u w=2u
M364 SUM12 N_bit12_sumbar 0 0 nmos l=1u w=1u
C12_sum SUM12 0 1p
C12_co C12 0 1p
M365 VDD A13 N_bit13_1 VDD pmos l=1u w=4u
M366 N_bit13_1 B13 N_bit13_cbar VDD pmos l=1u w=4u
M367 VDD A13 N_bit13_2 VDD pmos l=1u w=4u
M368 N_bit13_2 C12 N_bit13_cbar VDD pmos l=1u w=4u
M369 VDD B13 N_bit13_2 VDD pmos l=1u w=4u
M370 VDD N_bit13_cbar C13 VDD pmos l=1u w=2u
M389 C13 N_bit13_cbar 0 0 nmos l=1u w=1u
M384 N_bit13_9 B13 0 0 nmos l=1u w=2u
M385 N_bit13_9 A13 0 0 nmos l=1u w=2u
M386 N_bit13_10 A13 0 0 nmos l=1u w=2u
M387 N_bit13_cbar B13 N_bit13_10 0 nmos l=1u w=2u
M388 N_bit13_cbar C12 N_bit13_9 0 nmos l=1u w=2u
M371 VDD A13 N_bit13_3 VDD pmos l=1u w=4u
M372 VDD B13 N_bit13_3 VDD pmos l=1u w=4u
M373 VDD C12 N_bit13_3 VDD pmos l=1u w=4u
M374 VDD A13 N_bit13_4 VDD pmos l=1u w=8u
M375 N_bit13_4 B13 N_bit13_5 VDD pmos l=1u w=8u
M376 N_bit13_5 C12 N_bit13_sumbar VDD pmos l=1u w=8u
M390 N_bit13_3 N_bit13_cbar N_bit13_sumbar VDD pmos l=1u w=4u
M377 N_bit13_sumbar C12 N_bit13_6 0 nmos l=1u w=8u
M378 N_bit13_6 B13 N_bit13_7 0 nmos l=1u w=8u
M379 N_bit13_7 A13 0 0 nmos l=1u w=8u
M380 N_bit13_8 C12 0 0 nmos l=1u w=2u
M381 N_bit13_8 B13 0 0 nmos l=1u w=2u
M382 N_bit13_8 A13 0 0 nmos l=1u w=2u
M383 N_bit13_sumbar N_bit13_cbar N_bit13_8 0 nmos l=1u w=2u
M391 VDD N_bit13_sumbar SUM13 VDD pmos l=1u w=2u
M392 SUM13 N_bit13_sumbar 0 0 nmos l=1u w=1u
C13_sum SUM13 0 1p
C13_co C13 0 1p
M393 VDD A14 N_bit14_1 VDD pmos l=1u w=4u
M394 N_bit14_1 B14 N_bit14_cbar VDD pmos l=1u w=4u
M395 VDD A14 N_bit14_2 VDD pmos l=1u w=4u
M396 N_bit14_2 C13 N_bit14_cbar VDD pmos l=1u w=4u
M397 VDD B14 N_bit14_2 VDD pmos l=1u w=4u
M398 VDD N_bit14_cbar C14 VDD pmos l=1u w=2u
M417 C14 N_bit14_cbar 0 0 nmos l=1u w=1u
M412 N_bit14_9 B14 0 0 nmos l=1u w=2u
M413 N_bit14_9 A14 0 0 nmos l=1u w=2u
M414 N_bit14_10 A14 0 0 nmos l=1u w=2u
M415 N_bit14_cbar B14 N_bit14_10 0 nmos l=1u w=2u
M416 N_bit14_cbar C13 N_bit14_9 0 nmos l=1u w=2u
M399 VDD A14 N_bit14_3 VDD pmos l=1u w=4u
M400 VDD B14 N_bit14_3 VDD pmos l=1u w=4u
M401 VDD C13 N_bit14_3 VDD pmos l=1u w=4u
M402 VDD A14 N_bit14_4 VDD pmos l=1u w=8u
M403 N_bit14_4 B14 N_bit14_5 VDD pmos l=1u w=8u
M404 N_bit14_5 C13 N_bit14_sumbar VDD pmos l=1u w=8u
M418 N_bit14_3 N_bit14_cbar N_bit14_sumbar VDD pmos l=1u w=4u
M405 N_bit14_sumbar C13 N_bit14_6 0 nmos l=1u w=8u
M406 N_bit14_6 B14 N_bit14_7 0 nmos l=1u w=8u
M407 N_bit14_7 A14 0 0 nmos l=1u w=8u
M408 N_bit14_8 C13 0 0 nmos l=1u w=2u
M409 N_bit14_8 B14 0 0 nmos l=1u w=2u
M410 N_bit14_8 A14 0 0 nmos l=1u w=2u
M411 N_bit14_sumbar N_bit14_cbar N_bit14_8 0 nmos l=1u w=2u
M419 VDD N_bit14_sumbar SUM14 VDD pmos l=1u w=2u
M420 SUM14 N_bit14_sumbar 0 0 nmos l=1u w=1u
C14_sum SUM14 0 1p
C14_co C14 0 1p
M421 VDD A15 N_bit15_1 VDD pmos l=1u w=4u
M422 N_bit15_1 B15 N_bit15_cbar VDD pmos l=1u w=4u
M423 VDD A15 N_bit15_2 VDD pmos l=1u w=4u
M424 N_bit15_2 C14 N_bit15_cbar VDD pmos l=1u w=4u
M425 VDD B15 N_bit15_2 VDD pmos l=1u w=4u
M426 VDD N_bit15_cbar C15 VDD pmos l=1u w=2u
M445 C15 N_bit15_cbar 0 0 nmos l=1u w=1u
M440 N_bit15_9 B15 0 0 nmos l=1u w=2u
M441 N_bit15_9 A15 0 0 nmos l=1u w=2u
M442 N_bit15_10 A15 0 0 nmos l=1u w=2u
M443 N_bit15_cbar B15 N_bit15_10 0 nmos l=1u w=2u
M444 N_bit15_cbar C14 N_bit15_9 0 nmos l=1u w=2u
M427 VDD A15 N_bit15_3 VDD pmos l=1u w=4u
M428 VDD B15 N_bit15_3 VDD pmos l=1u w=4u
M429 VDD C14 N_bit15_3 VDD pmos l=1u w=4u
M430 VDD A15 N_bit15_4 VDD pmos l=1u w=8u
M431 N_bit15_4 B15 N_bit15_5 VDD pmos l=1u w=8u
M432 N_bit15_5 C14 N_bit15_sumbar VDD pmos l=1u w=8u
M446 N_bit15_3 N_bit15_cbar N_bit15_sumbar VDD pmos l=1u w=4u
M433 N_bit15_sumbar C14 N_bit15_6 0 nmos l=1u w=8u
M434 N_bit15_6 B15 N_bit15_7 0 nmos l=1u w=8u
M435 N_bit15_7 A15 0 0 nmos l=1u w=8u
M436 N_bit15_8 C14 0 0 nmos l=1u w=2u
M437 N_bit15_8 B15 0 0 nmos l=1u w=2u
M438 N_bit15_8 A15 0 0 nmos l=1u w=2u
M439 N_bit15_sumbar N_bit15_cbar N_bit15_8 0 nmos l=1u w=2u
M447 VDD N_bit15_sumbar SUM15 VDD pmos l=1u w=2u
M448 SUM15 N_bit15_sumbar 0 0 nmos l=1u w=1u
C15_sum SUM15 0 1p
C15_co C15 0 1p
M449 VDD A16 N_bit16_1 VDD pmos l=1u w=4u
M450 N_bit16_1 B16 N_bit16_cbar VDD pmos l=1u w=4u
M451 VDD A16 N_bit16_2 VDD pmos l=1u w=4u
M452 N_bit16_2 C15 N_bit16_cbar VDD pmos l=1u w=4u
M453 VDD B16 N_bit16_2 VDD pmos l=1u w=4u
M454 VDD N_bit16_cbar C16 VDD pmos l=1u w=2u
M473 C16 N_bit16_cbar 0 0 nmos l=1u w=1u
M468 N_bit16_9 B16 0 0 nmos l=1u w=2u
M469 N_bit16_9 A16 0 0 nmos l=1u w=2u
M470 N_bit16_10 A16 0 0 nmos l=1u w=2u
M471 N_bit16_cbar B16 N_bit16_10 0 nmos l=1u w=2u
M472 N_bit16_cbar C15 N_bit16_9 0 nmos l=1u w=2u
M455 VDD A16 N_bit16_3 VDD pmos l=1u w=4u
M456 VDD B16 N_bit16_3 VDD pmos l=1u w=4u
M457 VDD C15 N_bit16_3 VDD pmos l=1u w=4u
M458 VDD A16 N_bit16_4 VDD pmos l=1u w=8u
M459 N_bit16_4 B16 N_bit16_5 VDD pmos l=1u w=8u
M460 N_bit16_5 C15 N_bit16_sumbar VDD pmos l=1u w=8u
M474 N_bit16_3 N_bit16_cbar N_bit16_sumbar VDD pmos l=1u w=4u
M461 N_bit16_sumbar C15 N_bit16_6 0 nmos l=1u w=8u
M462 N_bit16_6 B16 N_bit16_7 0 nmos l=1u w=8u
M463 N_bit16_7 A16 0 0 nmos l=1u w=8u
M464 N_bit16_8 C15 0 0 nmos l=1u w=2u
M465 N_bit16_8 B16 0 0 nmos l=1u w=2u
M466 N_bit16_8 A16 0 0 nmos l=1u w=2u
M467 N_bit16_sumbar N_bit16_cbar N_bit16_8 0 nmos l=1u w=2u
M475 VDD N_bit16_sumbar SUM16 VDD pmos l=1u w=2u
M476 SUM16 N_bit16_sumbar 0 0 nmos l=1u w=1u
C16_sum SUM16 0 1p
C16_co C16 0 1p
M477 VDD A17 N_bit17_1 VDD pmos l=1u w=4u
M478 N_bit17_1 B17 N_bit17_cbar VDD pmos l=1u w=4u
M479 VDD A17 N_bit17_2 VDD pmos l=1u w=4u
M480 N_bit17_2 C16 N_bit17_cbar VDD pmos l=1u w=4u
M481 VDD B17 N_bit17_2 VDD pmos l=1u w=4u
M482 VDD N_bit17_cbar C17 VDD pmos l=1u w=2u
M501 C17 N_bit17_cbar 0 0 nmos l=1u w=1u
M496 N_bit17_9 B17 0 0 nmos l=1u w=2u
M497 N_bit17_9 A17 0 0 nmos l=1u w=2u
M498 N_bit17_10 A17 0 0 nmos l=1u w=2u
M499 N_bit17_cbar B17 N_bit17_10 0 nmos l=1u w=2u
M500 N_bit17_cbar C16 N_bit17_9 0 nmos l=1u w=2u
M483 VDD A17 N_bit17_3 VDD pmos l=1u w=4u
M484 VDD B17 N_bit17_3 VDD pmos l=1u w=4u
M485 VDD C16 N_bit17_3 VDD pmos l=1u w=4u
M486 VDD A17 N_bit17_4 VDD pmos l=1u w=8u
M487 N_bit17_4 B17 N_bit17_5 VDD pmos l=1u w=8u
M488 N_bit17_5 C16 N_bit17_sumbar VDD pmos l=1u w=8u
M502 N_bit17_3 N_bit17_cbar N_bit17_sumbar VDD pmos l=1u w=4u
M489 N_bit17_sumbar C16 N_bit17_6 0 nmos l=1u w=8u
M490 N_bit17_6 B17 N_bit17_7 0 nmos l=1u w=8u
M491 N_bit17_7 A17 0 0 nmos l=1u w=8u
M492 N_bit17_8 C16 0 0 nmos l=1u w=2u
M493 N_bit17_8 B17 0 0 nmos l=1u w=2u
M494 N_bit17_8 A17 0 0 nmos l=1u w=2u
M495 N_bit17_sumbar N_bit17_cbar N_bit17_8 0 nmos l=1u w=2u
M503 VDD N_bit17_sumbar SUM17 VDD pmos l=1u w=2u
M504 SUM17 N_bit17_sumbar 0 0 nmos l=1u w=1u
C17_sum SUM17 0 1p
C17_co C17 0 1p
M505 VDD A18 N_bit18_1 VDD pmos l=1u w=4u
M506 N_bit18_1 B18 N_bit18_cbar VDD pmos l=1u w=4u
M507 VDD A18 N_bit18_2 VDD pmos l=1u w=4u
M508 N_bit18_2 C17 N_bit18_cbar VDD pmos l=1u w=4u
M509 VDD B18 N_bit18_2 VDD pmos l=1u w=4u
M510 VDD N_bit18_cbar C18 VDD pmos l=1u w=2u
M529 C18 N_bit18_cbar 0 0 nmos l=1u w=1u
M524 N_bit18_9 B18 0 0 nmos l=1u w=2u
M525 N_bit18_9 A18 0 0 nmos l=1u w=2u
M526 N_bit18_10 A18 0 0 nmos l=1u w=2u
M527 N_bit18_cbar B18 N_bit18_10 0 nmos l=1u w=2u
M528 N_bit18_cbar C17 N_bit18_9 0 nmos l=1u w=2u
M511 VDD A18 N_bit18_3 VDD pmos l=1u w=4u
M512 VDD B18 N_bit18_3 VDD pmos l=1u w=4u
M513 VDD C17 N_bit18_3 VDD pmos l=1u w=4u
M514 VDD A18 N_bit18_4 VDD pmos l=1u w=8u
M515 N_bit18_4 B18 N_bit18_5 VDD pmos l=1u w=8u
M516 N_bit18_5 C17 N_bit18_sumbar VDD pmos l=1u w=8u
M530 N_bit18_3 N_bit18_cbar N_bit18_sumbar VDD pmos l=1u w=4u
M517 N_bit18_sumbar C17 N_bit18_6 0 nmos l=1u w=8u
M518 N_bit18_6 B18 N_bit18_7 0 nmos l=1u w=8u
M519 N_bit18_7 A18 0 0 nmos l=1u w=8u
M520 N_bit18_8 C17 0 0 nmos l=1u w=2u
M521 N_bit18_8 B18 0 0 nmos l=1u w=2u
M522 N_bit18_8 A18 0 0 nmos l=1u w=2u
M523 N_bit18_sumbar N_bit18_cbar N_bit18_8 0 nmos l=1u w=2u
M531 VDD N_bit18_sumbar SUM18 VDD pmos l=1u w=2u
M532 SUM18 N_bit18_sumbar 0 0 nmos l=1u w=1u
C18_sum SUM18 0 1p
C18_co C18 0 1p
M533 VDD A19 N_bit19_1 VDD pmos l=1u w=4u
M534 N_bit19_1 B19 N_bit19_cbar VDD pmos l=1u w=4u
M535 VDD A19 N_bit19_2 VDD pmos l=1u w=4u
M536 N_bit19_2 C18 N_bit19_cbar VDD pmos l=1u w=4u
M537 VDD B19 N_bit19_2 VDD pmos l=1u w=4u
M538 VDD N_bit19_cbar C19 VDD pmos l=1u w=2u
M557 C19 N_bit19_cbar 0 0 nmos l=1u w=1u
M552 N_bit19_9 B19 0 0 nmos l=1u w=2u
M553 N_bit19_9 A19 0 0 nmos l=1u w=2u
M554 N_bit19_10 A19 0 0 nmos l=1u w=2u
M555 N_bit19_cbar B19 N_bit19_10 0 nmos l=1u w=2u
M556 N_bit19_cbar C18 N_bit19_9 0 nmos l=1u w=2u
M539 VDD A19 N_bit19_3 VDD pmos l=1u w=4u
M540 VDD B19 N_bit19_3 VDD pmos l=1u w=4u
M541 VDD C18 N_bit19_3 VDD pmos l=1u w=4u
M542 VDD A19 N_bit19_4 VDD pmos l=1u w=8u
M543 N_bit19_4 B19 N_bit19_5 VDD pmos l=1u w=8u
M544 N_bit19_5 C18 N_bit19_sumbar VDD pmos l=1u w=8u
M558 N_bit19_3 N_bit19_cbar N_bit19_sumbar VDD pmos l=1u w=4u
M545 N_bit19_sumbar C18 N_bit19_6 0 nmos l=1u w=8u
M546 N_bit19_6 B19 N_bit19_7 0 nmos l=1u w=8u
M547 N_bit19_7 A19 0 0 nmos l=1u w=8u
M548 N_bit19_8 C18 0 0 nmos l=1u w=2u
M549 N_bit19_8 B19 0 0 nmos l=1u w=2u
M550 N_bit19_8 A19 0 0 nmos l=1u w=2u
M551 N_bit19_sumbar N_bit19_cbar N_bit19_8 0 nmos l=1u w=2u
M559 VDD N_bit19_sumbar SUM19 VDD pmos l=1u w=2u
M560 SUM19 N_bit19_sumbar 0 0 nmos l=1u w=1u
C19_sum SUM19 0 1p
C19_co C19 0 1p
M561 VDD A20 N_bit20_1 VDD pmos l=1u w=4u
M562 N_bit20_1 B20 N_bit20_cbar VDD pmos l=1u w=4u
M563 VDD A20 N_bit20_2 VDD pmos l=1u w=4u
M564 N_bit20_2 C19 N_bit20_cbar VDD pmos l=1u w=4u
M565 VDD B20 N_bit20_2 VDD pmos l=1u w=4u
M566 VDD N_bit20_cbar C20 VDD pmos l=1u w=2u
M585 C20 N_bit20_cbar 0 0 nmos l=1u w=1u
M580 N_bit20_9 B20 0 0 nmos l=1u w=2u
M581 N_bit20_9 A20 0 0 nmos l=1u w=2u
M582 N_bit20_10 A20 0 0 nmos l=1u w=2u
M583 N_bit20_cbar B20 N_bit20_10 0 nmos l=1u w=2u
M584 N_bit20_cbar C19 N_bit20_9 0 nmos l=1u w=2u
M567 VDD A20 N_bit20_3 VDD pmos l=1u w=4u
M568 VDD B20 N_bit20_3 VDD pmos l=1u w=4u
M569 VDD C19 N_bit20_3 VDD pmos l=1u w=4u
M570 VDD A20 N_bit20_4 VDD pmos l=1u w=8u
M571 N_bit20_4 B20 N_bit20_5 VDD pmos l=1u w=8u
M572 N_bit20_5 C19 N_bit20_sumbar VDD pmos l=1u w=8u
M586 N_bit20_3 N_bit20_cbar N_bit20_sumbar VDD pmos l=1u w=4u
M573 N_bit20_sumbar C19 N_bit20_6 0 nmos l=1u w=8u
M574 N_bit20_6 B20 N_bit20_7 0 nmos l=1u w=8u
M575 N_bit20_7 A20 0 0 nmos l=1u w=8u
M576 N_bit20_8 C19 0 0 nmos l=1u w=2u
M577 N_bit20_8 B20 0 0 nmos l=1u w=2u
M578 N_bit20_8 A20 0 0 nmos l=1u w=2u
M579 N_bit20_sumbar N_bit20_cbar N_bit20_8 0 nmos l=1u w=2u
M587 VDD N_bit20_sumbar SUM20 VDD pmos l=1u w=2u
M588 SUM20 N_bit20_sumbar 0 0 nmos l=1u w=1u
C20_sum SUM20 0 1p
C20_co C20 0 1p
M589 VDD A21 N_bit21_1 VDD pmos l=1u w=4u
M590 N_bit21_1 B21 N_bit21_cbar VDD pmos l=1u w=4u
M591 VDD A21 N_bit21_2 VDD pmos l=1u w=4u
M592 N_bit21_2 C20 N_bit21_cbar VDD pmos l=1u w=4u
M593 VDD B21 N_bit21_2 VDD pmos l=1u w=4u
M594 VDD N_bit21_cbar C21 VDD pmos l=1u w=2u
M613 C21 N_bit21_cbar 0 0 nmos l=1u w=1u
M608 N_bit21_9 B21 0 0 nmos l=1u w=2u
M609 N_bit21_9 A21 0 0 nmos l=1u w=2u
M610 N_bit21_10 A21 0 0 nmos l=1u w=2u
M611 N_bit21_cbar B21 N_bit21_10 0 nmos l=1u w=2u
M612 N_bit21_cbar C20 N_bit21_9 0 nmos l=1u w=2u
M595 VDD A21 N_bit21_3 VDD pmos l=1u w=4u
M596 VDD B21 N_bit21_3 VDD pmos l=1u w=4u
M597 VDD C20 N_bit21_3 VDD pmos l=1u w=4u
M598 VDD A21 N_bit21_4 VDD pmos l=1u w=8u
M599 N_bit21_4 B21 N_bit21_5 VDD pmos l=1u w=8u
M600 N_bit21_5 C20 N_bit21_sumbar VDD pmos l=1u w=8u
M614 N_bit21_3 N_bit21_cbar N_bit21_sumbar VDD pmos l=1u w=4u
M601 N_bit21_sumbar C20 N_bit21_6 0 nmos l=1u w=8u
M602 N_bit21_6 B21 N_bit21_7 0 nmos l=1u w=8u
M603 N_bit21_7 A21 0 0 nmos l=1u w=8u
M604 N_bit21_8 C20 0 0 nmos l=1u w=2u
M605 N_bit21_8 B21 0 0 nmos l=1u w=2u
M606 N_bit21_8 A21 0 0 nmos l=1u w=2u
M607 N_bit21_sumbar N_bit21_cbar N_bit21_8 0 nmos l=1u w=2u
M615 VDD N_bit21_sumbar SUM21 VDD pmos l=1u w=2u
M616 SUM21 N_bit21_sumbar 0 0 nmos l=1u w=1u
C21_sum SUM21 0 1p
C21_co C21 0 1p
M617 VDD A22 N_bit22_1 VDD pmos l=1u w=4u
M618 N_bit22_1 B22 N_bit22_cbar VDD pmos l=1u w=4u
M619 VDD A22 N_bit22_2 VDD pmos l=1u w=4u
M620 N_bit22_2 C21 N_bit22_cbar VDD pmos l=1u w=4u
M621 VDD B22 N_bit22_2 VDD pmos l=1u w=4u
M622 VDD N_bit22_cbar C22 VDD pmos l=1u w=2u
M641 C22 N_bit22_cbar 0 0 nmos l=1u w=1u
M636 N_bit22_9 B22 0 0 nmos l=1u w=2u
M637 N_bit22_9 A22 0 0 nmos l=1u w=2u
M638 N_bit22_10 A22 0 0 nmos l=1u w=2u
M639 N_bit22_cbar B22 N_bit22_10 0 nmos l=1u w=2u
M640 N_bit22_cbar C21 N_bit22_9 0 nmos l=1u w=2u
M623 VDD A22 N_bit22_3 VDD pmos l=1u w=4u
M624 VDD B22 N_bit22_3 VDD pmos l=1u w=4u
M625 VDD C21 N_bit22_3 VDD pmos l=1u w=4u
M626 VDD A22 N_bit22_4 VDD pmos l=1u w=8u
M627 N_bit22_4 B22 N_bit22_5 VDD pmos l=1u w=8u
M628 N_bit22_5 C21 N_bit22_sumbar VDD pmos l=1u w=8u
M642 N_bit22_3 N_bit22_cbar N_bit22_sumbar VDD pmos l=1u w=4u
M629 N_bit22_sumbar C21 N_bit22_6 0 nmos l=1u w=8u
M630 N_bit22_6 B22 N_bit22_7 0 nmos l=1u w=8u
M631 N_bit22_7 A22 0 0 nmos l=1u w=8u
M632 N_bit22_8 C21 0 0 nmos l=1u w=2u
M633 N_bit22_8 B22 0 0 nmos l=1u w=2u
M634 N_bit22_8 A22 0 0 nmos l=1u w=2u
M635 N_bit22_sumbar N_bit22_cbar N_bit22_8 0 nmos l=1u w=2u
M643 VDD N_bit22_sumbar SUM22 VDD pmos l=1u w=2u
M644 SUM22 N_bit22_sumbar 0 0 nmos l=1u w=1u
C22_sum SUM22 0 1p
C22_co C22 0 1p
M645 VDD A23 N_bit23_1 VDD pmos l=1u w=4u
M646 N_bit23_1 B23 N_bit23_cbar VDD pmos l=1u w=4u
M647 VDD A23 N_bit23_2 VDD pmos l=1u w=4u
M648 N_bit23_2 C22 N_bit23_cbar VDD pmos l=1u w=4u
M649 VDD B23 N_bit23_2 VDD pmos l=1u w=4u
M650 VDD N_bit23_cbar C23 VDD pmos l=1u w=2u
M669 C23 N_bit23_cbar 0 0 nmos l=1u w=1u
M664 N_bit23_9 B23 0 0 nmos l=1u w=2u
M665 N_bit23_9 A23 0 0 nmos l=1u w=2u
M666 N_bit23_10 A23 0 0 nmos l=1u w=2u
M667 N_bit23_cbar B23 N_bit23_10 0 nmos l=1u w=2u
M668 N_bit23_cbar C22 N_bit23_9 0 nmos l=1u w=2u
M651 VDD A23 N_bit23_3 VDD pmos l=1u w=4u
M652 VDD B23 N_bit23_3 VDD pmos l=1u w=4u
M653 VDD C22 N_bit23_3 VDD pmos l=1u w=4u
M654 VDD A23 N_bit23_4 VDD pmos l=1u w=8u