* 64-bit Ripple Carry Adder - Generated from 28T Res netlist
* Based on provided 1-bit topology

* Models
.model NMOS nmos (level=14 version=4.8.2)
.model PMOS pmos (level=14 version=4.8.2)

* Simulation flags
.options acct
.options num_threads=64
.sparse

V1 VDD 0 1.8

* --- Generated Transistors, Resistors, and Caps ---

* Bit 0
M1 N001_0 A0 N010_0 N001_0 PMOS l=1u w=4u
M2 N010_0 B0 N016_0 N012_0 PMOS l=1u w=4u
M3 N002_0 A0 N008_0 N002_0 PMOS l=1u w=4u
M4 N008_0 Cin N016_0 N013_0 PMOS l=1u w=4u
M5 N003_0 B0 N008_0 N003_0 PMOS l=1u w=4u
M6 VDD N016_0 C0 N020_0 PMOS l=1u w=2u
M7 N004_0 A0 N009_0 N004_0 PMOS l=1u w=4u
M8 N005_0 B0 N009_0 N005_0 PMOS l=1u w=4u
M9 N006_0 Cin N009_0 N006_0 PMOS l=1u w=4u
M10 N007_0 A0 N011_0 N007_0 PMOS l=1u w=8u
M11 N011_0 B0 N017_0 N015_0 PMOS l=1u w=8u
M12 N017_0 Cin N021_0 N018_0 PMOS l=1u w=8u
M13 N021_0 Cin N022_0 0 NMOS l=1u w=8u
M14 N022_0 B0 N026_0 0 NMOS l=1u w=8u
M15 N026_0 A0 0 0 NMOS l=1u w=8u
M16 N024_0 Cin 0 0 NMOS l=1u w=2u
M17 N024_0 B0 0 0 NMOS l=1u w=2u
M18 N024_0 A0 0 0 NMOS l=1u w=2u
M19 N021_0 N016_0 N024_0 0 NMOS l=1u w=2u
M20 N023_0 B0 0 0 NMOS l=1u w=2u
M21 N023_0 A0 0 0 NMOS l=1u w=2u
M22 N025_0 A0 0 0 NMOS l=1u w=2u
M23 N016_0 B0 N025_0 0 NMOS l=1u w=2u
M24 N016_0 Cin N023_0 0 NMOS l=1u w=2u
M25 C0 N016_0 0 0 NMOS l=1u w=1u
M26 N009_0 N016_0 N021_0 N014_0 PMOS l=1u w=4u
M27 N019_0 N021_0 SUM0 N019_0 PMOS l=1u w=2u
M28 SUM0 N021_0 0 0 NMOS l=1u w=1u
R1 VDD N002_0 0.001
R2 VDD N003_0 0.001
R3 VDD N004_0 0.001
R4 VDD N005_0 0.001
R5 VDD N006_0 0.001
R6 VDD N007_0 0.001
R7 VDD N013_0 0.001
R8 N012_0 VDD 0.001
R9 VDD N001_0 0.001
R10 VDD N019_0 0.001
R11 VDD N014_0 0.001
R12 VDD N015_0 0.001
R13 VDD N018_0 0.001
R14 VDD N020_0 0.001
C1 SUM0 0 1p
C2 C0 0 1p

* Bit 1
M29 N001_1 A1 N010_1 N001_1 PMOS l=1u w=4u
M30 N010_1 B1 N016_1 N012_1 PMOS l=1u w=4u
M31 N002_1 A1 N008_1 N002_1 PMOS l=1u w=4u
M32 N008_1 C0 N016_1 N013_1 PMOS l=1u w=4u
M33 N003_1 B1 N008_1 N003_1 PMOS l=1u w=4u
M34 VDD N016_1 C1 N020_1 PMOS l=1u w=2u
M35 N004_1 A1 N009_1 N004_1 PMOS l=1u w=4u
M36 N005_1 B1 N009_1 N005_1 PMOS l=1u w=4u
M37 N006_1 C0 N009_1 N006_1 PMOS l=1u w=4u
M38 N007_1 A1 N011_1 N007_1 PMOS l=1u w=8u
M39 N011_1 B1 N017_1 N015_1 PMOS l=1u w=8u
M40 N017_1 C0 N021_1 N018_1 PMOS l=1u w=8u
M41 N021_1 C0 N022_1 0 NMOS l=1u w=8u
M42 N022_1 B1 N026_1 0 NMOS l=1u w=8u
M43 N026_1 A1 0 0 NMOS l=1u w=8u
M44 N024_1 C0 0 0 NMOS l=1u w=2u
M45 N024_1 B1 0 0 NMOS l=1u w=2u
M46 N024_1 A1 0 0 NMOS l=1u w=2u
M47 N021_1 N016_1 N024_1 0 NMOS l=1u w=2u
M48 N023_1 B1 0 0 NMOS l=1u w=2u
M49 N023_1 A1 0 0 NMOS l=1u w=2u
M50 N025_1 A1 0 0 NMOS l=1u w=2u
M51 N016_1 B1 N025_1 0 NMOS l=1u w=2u
M52 N016_1 C0 N023_1 0 NMOS l=1u w=2u
M53 C1 N016_1 0 0 NMOS l=1u w=1u
M54 N009_1 N016_1 N021_1 N014_1 PMOS l=1u w=4u
M55 N019_1 N021_1 SUM1 N019_1 PMOS l=1u w=2u
M56 SUM1 N021_1 0 0 NMOS l=1u w=1u
R15 VDD N002_1 0.001
R16 VDD N003_1 0.001
R17 VDD N004_1 0.001
R18 VDD N005_1 0.001
R19 VDD N006_1 0.001
R20 VDD N007_1 0.001
R21 VDD N013_1 0.001
R22 N012_1 VDD 0.001
R23 VDD N001_1 0.001
R24 VDD N019_1 0.001
R25 VDD N014_1 0.001
R26 VDD N015_1 0.001
R27 VDD N018_1 0.001
R28 VDD N020_1 0.001
C3 SUM1 0 1p
C4 C1 0 1p

* Bit 2
M57 N001_2 A2 N010_2 N001_2 PMOS l=1u w=4u
M58 N010_2 B2 N016_2 N012_2 PMOS l=1u w=4u
M59 N002_2 A2 N008_2 N002_2 PMOS l=1u w=4u
M60 N008_2 C1 N016_2 N013_2 PMOS l=1u w=4u
M61 N003_2 B2 N008_2 N003_2 PMOS l=1u w=4u
M62 VDD N016_2 C2 N020_2 PMOS l=1u w=2u
M63 N004_2 A2 N009_2 N004_2 PMOS l=1u w=4u
M64 N005_2 B2 N009_2 N005_2 PMOS l=1u w=4u
M65 N006_2 C1 N009_2 N006_2 PMOS l=1u w=4u
M66 N007_2 A2 N011_2 N007_2 PMOS l=1u w=8u
M67 N011_2 B2 N017_2 N015_2 PMOS l=1u w=8u
M68 N017_2 C1 N021_2 N018_2 PMOS l=1u w=8u
M69 N021_2 C1 N022_2 0 NMOS l=1u w=8u
M70 N022_2 B2 N026_2 0 NMOS l=1u w=8u
M71 N026_2 A2 0 0 NMOS l=1u w=8u
M72 N024_2 C1 0 0 NMOS l=1u w=2u
M73 N024_2 B2 0 0 NMOS l=1u w=2u
M74 N024_2 A2 0 0 NMOS l=1u w=2u
M75 N021_2 N016_2 N024_2 0 NMOS l=1u w=2u
M76 N023_2 B2 0 0 NMOS l=1u w=2u
M77 N023_2 A2 0 0 NMOS l=1u w=2u
M78 N025_2 A2 0 0 NMOS l=1u w=2u
M79 N016_2 B2 N025_2 0 NMOS l=1u w=2u
M80 N016_2 C1 N023_2 0 NMOS l=1u w=2u
M81 C2 N016_2 0 0 NMOS l=1u w=1u
M82 N009_2 N016_2 N021_2 N014_2 PMOS l=1u w=4u
M83 N019_2 N021_2 SUM2 N019_2 PMOS l=1u w=2u
M84 SUM2 N021_2 0 0 NMOS l=1u w=1u
R29 VDD N002_2 0.001
R30 VDD N003_2 0.001
R31 VDD N004_2 0.001
R32 VDD N005_2 0.001
R33 VDD N006_2 0.001
R34 VDD N007_2 0.001
R35 VDD N013_2 0.001
R36 N012_2 VDD 0.001
R37 VDD N001_2 0.001
R38 VDD N019_2 0.001
R39 VDD N014_2 0.001
R40 VDD N015_2 0.001
R41 VDD N018_2 0.001
R42 VDD N020_2 0.001
C5 SUM2 0 1p
C6 C2 0 1p

* Bit 3
M85 N001_3 A3 N010_3 N001_3 PMOS l=1u w=4u
M86 N010_3 B3 N016_3 N012_3 PMOS l=1u w=4u
M87 N002_3 A3 N008_3 N002_3 PMOS l=1u w=4u
M88 N008_3 C2 N016_3 N013_3 PMOS l=1u w=4u
M89 N003_3 B3 N008_3 N003_3 PMOS l=1u w=4u
M90 VDD N016_3 C3 N020_3 PMOS l=1u w=2u
M91 N004_3 A3 N009_3 N004_3 PMOS l=1u w=4u
M92 N005_3 B3 N009_3 N005_3 PMOS l=1u w=4u
M93 N006_3 C2 N009_3 N006_3 PMOS l=1u w=4u
M94 N007_3 A3 N011_3 N007_3 PMOS l=1u w=8u
M95 N011_3 B3 N017_3 N015_3 PMOS l=1u w=8u
M96 N017_3 C2 N021_3 N018_3 PMOS l=1u w=8u
M97 N021_3 C2 N022_3 0 NMOS l=1u w=8u
M98 N022_3 B3 N026_3 0 NMOS l=1u w=8u
M99 N026_3 A3 0 0 NMOS l=1u w=8u
M100 N024_3 C2 0 0 NMOS l=1u w=2u
M101 N024_3 B3 0 0 NMOS l=1u w=2u
M102 N024_3 A3 0 0 NMOS l=1u w=2u
M103 N021_3 N016_3 N024_3 0 NMOS l=1u w=2u
M104 N023_3 B3 0 0 NMOS l=1u w=2u
M105 N023_3 A3 0 0 NMOS l=1u w=2u
M106 N025_3 A3 0 0 NMOS l=1u w=2u
M107 N016_3 B3 N025_3 0 NMOS l=1u w=2u
M108 N016_3 C2 N023_3 0 NMOS l=1u w=2u
M109 C3 N016_3 0 0 NMOS l=1u w=1u
M110 N009_3 N016_3 N021_3 N014_3 PMOS l=1u w=4u
M111 N019_3 N021_3 SUM3 N019_3 PMOS l=1u w=2u
M112 SUM3 N021_3 0 0 NMOS l=1u w=1u
R43 VDD N002_3 0.001
R44 VDD N003_3 0.001
R45 VDD N004_3 0.001
R46 VDD N005_3 0.001
R47 VDD N006_3 0.001
R48 VDD N007_3 0.001
R49 VDD N013_3 0.001
R50 N012_3 VDD 0.001
R51 VDD N001_3 0.001
R52 VDD N019_3 0.001
R53 VDD N014_3 0.001
R54 VDD N015_3 0.001
R55 VDD N018_3 0.001
R56 VDD N020_3 0.001
C7 SUM3 0 1p
C8 C3 0 1p

* Bit 4
M113 N001_4 A4 N010_4 N001_4 PMOS l=1u w=4u
M114 N010_4 B4 N016_4 N012_4 PMOS l=1u w=4u
M115 N002_4 A4 N008_4 N002_4 PMOS l=1u w=4u
M116 N008_4 C3 N016_4 N013_4 PMOS l=1u w=4u
M117 N003_4 B4 N008_4 N003_4 PMOS l=1u w=4u
M118 VDD N016_4 C4 N020_4 PMOS l=1u w=2u
M119 N004_4 A4 N009_4 N004_4 PMOS l=1u w=4u
M120 N005_4 B4 N009_4 N005_4 PMOS l=1u w=4u
M121 N006_4 C3 N009_4 N006_4 PMOS l=1u w=4u
M122 N007_4 A4 N011_4 N007_4 PMOS l=1u w=8u
M123 N011_4 B4 N017_4 N015_4 PMOS l=1u w=8u
M124 N017_4 C3 N021_4 N018_4 PMOS l=1u w=8u
M125 N021_4 C3 N022_4 0 NMOS l=1u w=8u
M126 N022_4 B4 N026_4 0 NMOS l=1u w=8u
M127 N026_4 A4 0 0 NMOS l=1u w=8u
M128 N024_4 C3 0 0 NMOS l=1u w=2u
M129 N024_4 B4 0 0 NMOS l=1u w=2u
M130 N024_4 A4 0 0 NMOS l=1u w=2u
M131 N021_4 N016_4 N024_4 0 NMOS l=1u w=2u
M132 N023_4 B4 0 0 NMOS l=1u w=2u
M133 N023_4 A4 0 0 NMOS l=1u w=2u
M134 N025_4 A4 0 0 NMOS l=1u w=2u
M135 N016_4 B4 N025_4 0 NMOS l=1u w=2u
M136 N016_4 C3 N023_4 0 NMOS l=1u w=2u
M137 C4 N016_4 0 0 NMOS l=1u w=1u
M138 N009_4 N016_4 N021_4 N014_4 PMOS l=1u w=4u
M139 N019_4 N021_4 SUM4 N019_4 PMOS l=1u w=2u
M140 SUM4 N021_4 0 0 NMOS l=1u w=1u
R57 VDD N002_4 0.001
R58 VDD N003_4 0.001
R59 VDD N004_4 0.001
R60 VDD N005_4 0.001
R61 VDD N006_4 0.001
R62 VDD N007_4 0.001
R63 VDD N013_4 0.001
R64 N012_4 VDD 0.001
R65 VDD N001_4 0.001
R66 VDD N019_4 0.001
R67 VDD N014_4 0.001
R68 VDD N015_4 0.001
R69 VDD N018_4 0.001
R70 VDD N020_4 0.001
C9 SUM4 0 1p
C10 C4 0 1p

* Bit 5
M141 N001_5 A5 N010_5 N001_5 PMOS l=1u w=4u
M142 N010_5 B5 N016_5 N012_5 PMOS l=1u w=4u
M143 N002_5 A5 N008_5 N002_5 PMOS l=1u w=4u
M144 N008_5 C4 N016_5 N013_5 PMOS l=1u w=4u
M145 N003_5 B5 N008_5 N003_5 PMOS l=1u w=4u
M146 VDD N016_5 C5 N020_5 PMOS l=1u w=2u
M147 N004_5 A5 N009_5 N004_5 PMOS l=1u w=4u
M148 N005_5 B5 N009_5 N005_5 PMOS l=1u w=4u
M149 N006_5 C4 N009_5 N006_5 PMOS l=1u w=4u
M150 N007_5 A5 N011_5 N007_5 PMOS l=1u w=8u
M151 N011_5 B5 N017_5 N015_5 PMOS l=1u w=8u
M152 N017_5 C4 N021_5 N018_5 PMOS l=1u w=8u
M153 N021_5 C4 N022_5 0 NMOS l=1u w=8u
M154 N022_5 B5 N026_5 0 NMOS l=1u w=8u
M155 N026_5 A5 0 0 NMOS l=1u w=8u
M156 N024_5 C4 0 0 NMOS l=1u w=2u
M157 N024_5 B5 0 0 NMOS l=1u w=2u
M158 N024_5 A5 0 0 NMOS l=1u w=2u
M159 N021_5 N016_5 N024_5 0 NMOS l=1u w=2u
M160 N023_5 B5 0 0 NMOS l=1u w=2u
M161 N023_5 A5 0 0 NMOS l=1u w=2u
M162 N025_5 A5 0 0 NMOS l=1u w=2u
M163 N016_5 B5 N025_5 0 NMOS l=1u w=2u
M164 N016_5 C4 N023_5 0 NMOS l=1u w=2u
M165 C5 N016_5 0 0 NMOS l=1u w=1u
M166 N009_5 N016_5 N021_5 N014_5 PMOS l=1u w=4u
M167 N019_5 N021_5 SUM5 N019_5 PMOS l=1u w=2u
M168 SUM5 N021_5 0 0 NMOS l=1u w=1u
R71 VDD N002_5 0.001
R72 VDD N003_5 0.001
R73 VDD N004_5 0.001
R74 VDD N005_5 0.001
R75 VDD N006_5 0.001
R76 VDD N007_5 0.001
R77 VDD N013_5 0.001
R78 N012_5 VDD 0.001
R79 VDD N001_5 0.001
R80 VDD N019_5 0.001
R81 VDD N014_5 0.001
R82 VDD N015_5 0.001
R83 VDD N018_5 0.001
R84 VDD N020_5 0.001
C11 SUM5 0 1p
C12 C5 0 1p

* Bit 6
M169 N001_6 A6 N010_6 N001_6 PMOS l=1u w=4u
M170 N010_6 B6 N016_6 N012_6 PMOS l=1u w=4u
M171 N002_6 A6 N008_6 N002_6 PMOS l=1u w=4u
M172 N008_6 C5 N016_6 N013_6 PMOS l=1u w=4u
M173 N003_6 B6 N008_6 N003_6 PMOS l=1u w=4u
M174 VDD N016_6 C6 N020_6 PMOS l=1u w=2u
M175 N004_6 A6 N009_6 N004_6 PMOS l=1u w=4u
M176 N005_6 B6 N009_6 N005_6 PMOS l=1u w=4u
M177 N006_6 C5 N009_6 N006_6 PMOS l=1u w=4u
M178 N007_6 A6 N011_6 N007_6 PMOS l=1u w=8u
M179 N011_6 B6 N017_6 N015_6 PMOS l=1u w=8u
M180 N017_6 C5 N021_6 N018_6 PMOS l=1u w=8u
M181 N021_6 C5 N022_6 0 NMOS l=1u w=8u
M182 N022_6 B6 N026_6 0 NMOS l=1u w=8u
M183 N026_6 A6 0 0 NMOS l=1u w=8u
M184 N024_6 C5 0 0 NMOS l=1u w=2u
M185 N024_6 B6 0 0 NMOS l=1u w=2u
M186 N024_6 A6 0 0 NMOS l=1u w=2u
M187 N021_6 N016_6 N024_6 0 NMOS l=1u w=2u
M188 N023_6 B6 0 0 NMOS l=1u w=2u
M189 N023_6 A6 0 0 NMOS l=1u w=2u
M190 N025_6 A6 0 0 NMOS l=1u w=2u
M191 N016_6 B6 N025_6 0 NMOS l=1u w=2u
M192 N016_6 C5 N023_6 0 NMOS l=1u w=2u
M193 C6 N016_6 0 0 NMOS l=1u w=1u
M194 N009_6 N016_6 N021_6 N014_6 PMOS l=1u w=4u
M195 N019_6 N021_6 SUM6 N019_6 PMOS l=1u w=2u
M196 SUM6 N021_6 0 0 NMOS l=1u w=1u
R85 VDD N002_6 0.001
R86 VDD N003_6 0.001
R87 VDD N004_6 0.001
R88 VDD N005_6 0.001
R89 VDD N006_6 0.001
R90 VDD N007_6 0.001
R91 VDD N013_6 0.001
R92 N012_6 VDD 0.001
R93 VDD N001_6 0.001
R94 VDD N019_6 0.001
R95 VDD N014_6 0.001
R96 VDD N015_6 0.001
R97 VDD N018_6 0.001
R98 VDD N020_6 0.001
C13 SUM6 0 1p
C14 C6 0 1p

* Bit 7
M197 N001_7 A7 N010_7 N001_7 PMOS l=1u w=4u
M198 N010_7 B7 N016_7 N012_7 PMOS l=1u w=4u
M199 N002_7 A7 N008_7 N002_7 PMOS l=1u w=4u
M200 N008_7 C6 N016_7 N013_7 PMOS l=1u w=4u
M201 N003_7 B7 N008_7 N003_7 PMOS l=1u w=4u
M202 VDD N016_7 C7 N020_7 PMOS l=1u w=2u
M203 N004_7 A7 N009_7 N004_7 PMOS l=1u w=4u
M204 N005_7 B7 N009_7 N005_7 PMOS l=1u w=4u
M205 N006_7 C6 N009_7 N006_7 PMOS l=1u w=4u
M206 N007_7 A7 N011_7 N007_7 PMOS l=1u w=8u
M207 N011_7 B7 N017_7 N015_7 PMOS l=1u w=8u
M208 N017_7 C6 N021_7 N018_7 PMOS l=1u w=8u
M209 N021_7 C6 N022_7 0 NMOS l=1u w=8u
M210 N022_7 B7 N026_7 0 NMOS l=1u w=8u
M211 N026_7 A7 0 0 NMOS l=1u w=8u
M212 N024_7 C6 0 0 NMOS l=1u w=2u
M213 N024_7 B7 0 0 NMOS l=1u w=2u
M214 N024_7 A7 0 0 NMOS l=1u w=2u
M215 N021_7 N016_7 N024_7 0 NMOS l=1u w=2u
M216 N023_7 B7 0 0 NMOS l=1u w=2u
M217 N023_7 A7 0 0 NMOS l=1u w=2u
M218 N025_7 A7 0 0 NMOS l=1u w=2u
M219 N016_7 B7 N025_7 0 NMOS l=1u w=2u
M220 N016_7 C6 N023_7 0 NMOS l=1u w=2u
M221 C7 N016_7 0 0 NMOS l=1u w=1u
M222 N009_7 N016_7 N021_7 N014_7 PMOS l=1u w=4u
M223 N019_7 N021_7 SUM7 N019_7 PMOS l=1u w=2u
M224 SUM7 N021_7 0 0 NMOS l=1u w=1u
R99 VDD N002_7 0.001
R100 VDD N003_7 0.001
R101 VDD N004_7 0.001
R102 VDD N005_7 0.001
R103 VDD N006_7 0.001
R104 VDD N007_7 0.001
R105 VDD N013_7 0.001
R106 N012_7 VDD 0.001
R107 VDD N001_7 0.001
R108 VDD N019_7 0.001
R109 VDD N014_7 0.001
R110 VDD N015_7 0.001
R111 VDD N018_7 0.001
R112 VDD N020_7 0.001
C15 SUM7 0 1p
C16 C7 0 1p

* Bit 8
M225 N001_8 A8 N010_8 N001_8 PMOS l=1u w=4u
M226 N010_8 B8 N016_8 N012_8 PMOS l=1u w=4u
M227 N002_8 A8 N008_8 N002_8 PMOS l=1u w=4u
M228 N008_8 C7 N016_8 N013_8 PMOS l=1u w=4u
M229 N003_8 B8 N008_8 N003_8 PMOS l=1u w=4u
M230 VDD N016_8 C8 N020_8 PMOS l=1u w=2u
M231 N004_8 A8 N009_8 N004_8 PMOS l=1u w=4u
M232 N005_8 B8 N009_8 N005_8 PMOS l=1u w=4u
M233 N006_8 C7 N009_8 N006_8 PMOS l=1u w=4u
M234 N007_8 A8 N011_8 N007_8 PMOS l=1u w=8u
M235 N011_8 B8 N017_8 N015_8 PMOS l=1u w=8u
M236 N017_8 C7 N021_8 N018_8 PMOS l=1u w=8u
M237 N021_8 C7 N022_8 0 NMOS l=1u w=8u
M238 N022_8 B8 N026_8 0 NMOS l=1u w=8u
M239 N026_8 A8 0 0 NMOS l=1u w=8u
M240 N024_8 C7 0 0 NMOS l=1u w=2u
M241 N024_8 B8 0 0 NMOS l=1u w=2u
M242 N024_8 A8 0 0 NMOS l=1u w=2u
M243 N021_8 N016_8 N024_8 0 NMOS l=1u w=2u
M244 N023_8 B8 0 0 NMOS l=1u w=2u
M245 N023_8 A8 0 0 NMOS l=1u w=2u
M246 N025_8 A8 0 0 NMOS l=1u w=2u
M247 N016_8 B8 N025_8 0 NMOS l=1u w=2u
M248 N016_8 C7 N023_8 0 NMOS l=1u w=2u
M249 C8 N016_8 0 0 NMOS l=1u w=1u
M250 N009_8 N016_8 N021_8 N014_8 PMOS l=1u w=4u
M251 N019_8 N021_8 SUM8 N019_8 PMOS l=1u w=2u
M252 SUM8 N021_8 0 0 NMOS l=1u w=1u
R113 VDD N002_8 0.001
R114 VDD N003_8 0.001
R115 VDD N004_8 0.001
R116 VDD N005_8 0.001
R117 VDD N006_8 0.001
R118 VDD N007_8 0.001
R119 VDD N013_8 0.001
R120 N012_8 VDD 0.001
R121 VDD N001_8 0.001
R122 VDD N019_8 0.001
R123 VDD N014_8 0.001
R124 VDD N015_8 0.001
R125 VDD N018_8 0.001
R126 VDD N020_8 0.001
C17 SUM8 0 1p
C18 C8 0 1p

* Bit 9
M253 N001_9 A9 N010_9 N001_9 PMOS l=1u w=4u
M254 N010_9 B9 N016_9 N012_9 PMOS l=1u w=4u
M255 N002_9 A9 N008_9 N002_9 PMOS l=1u w=4u
M256 N008_9 C8 N016_9 N013_9 PMOS l=1u w=4u
M257 N003_9 B9 N008_9 N003_9 PMOS l=1u w=4u
M258 VDD N016_9 C9 N020_9 PMOS l=1u w=2u
M259 N004_9 A9 N009_9 N004_9 PMOS l=1u w=4u
M260 N005_9 B9 N009_9 N005_9 PMOS l=1u w=4u
M261 N006_9 C8 N009_9 N006_9 PMOS l=1u w=4u
M262 N007_9 A9 N011_9 N007_9 PMOS l=1u w=8u
M263 N011_9 B9 N017_9 N015_9 PMOS l=1u w=8u
M264 N017_9 C8 N021_9 N018_9 PMOS l=1u w=8u
M265 N021_9 C8 N022_9 0 NMOS l=1u w=8u
M266 N022_9 B9 N026_9 0 NMOS l=1u w=8u
M267 N026_9 A9 0 0 NMOS l=1u w=8u
M268 N024_9 C8 0 0 NMOS l=1u w=2u
M269 N024_9 B9 0 0 NMOS l=1u w=2u
M270 N024_9 A9 0 0 NMOS l=1u w=2u
M271 N021_9 N016_9 N024_9 0 NMOS l=1u w=2u
M272 N023_9 B9 0 0 NMOS l=1u w=2u
M273 N023_9 A9 0 0 NMOS l=1u w=2u
M274 N025_9 A9 0 0 NMOS l=1u w=2u
M275 N016_9 B9 N025_9 0 NMOS l=1u w=2u
M276 N016_9 C8 N023_9 0 NMOS l=1u w=2u
M277 C9 N016_9 0 0 NMOS l=1u w=1u
M278 N009_9 N016_9 N021_9 N014_9 PMOS l=1u w=4u
M279 N019_9 N021_9 SUM9 N019_9 PMOS l=1u w=2u
M280 SUM9 N021_9 0 0 NMOS l=1u w=1u
R127 VDD N002_9 0.001
R128 VDD N003_9 0.001
R129 VDD N004_9 0.001
R130 VDD N005_9 0.001
R131 VDD N006_9 0.001
R132 VDD N007_9 0.001
R133 VDD N013_9 0.001
R134 N012_9 VDD 0.001
R135 VDD N001_9 0.001
R136 VDD N019_9 0.001
R137 VDD N014_9 0.001
R138 VDD N015_9 0.001
R139 VDD N018_9 0.001
R140 VDD N020_9 0.001
C19 SUM9 0 1p
C20 C9 0 1p

* Bit 10
M281 N001_10 A10 N010_10 N001_10 PMOS l=1u w=4u
M282 N010_10 B10 N016_10 N012_10 PMOS l=1u w=4u
M283 N002_10 A10 N008_10 N002_10 PMOS l=1u w=4u
M284 N008_10 C9 N016_10 N013_10 PMOS l=1u w=4u
M285 N003_10 B10 N008_10 N003_10 PMOS l=1u w=4u
M286 VDD N016_10 C10 N020_10 PMOS l=1u w=2u
M287 N004_10 A10 N009_10 N004_10 PMOS l=1u w=4u
M288 N005_10 B10 N009_10 N005_10 PMOS l=1u w=4u
M289 N006_10 C9 N009_10 N006_10 PMOS l=1u w=4u
M290 N007_10 A10 N011_10 N007_10 PMOS l=1u w=8u
M291 N011_10 B10 N017_10 N015_10 PMOS l=1u w=8u
M292 N017_10 C9 N021_10 N018_10 PMOS l=1u w=8u
M293 N021_10 C9 N022_10 0 NMOS l=1u w=8u
M294 N022_10 B10 N026_10 0 NMOS l=1u w=8u
M295 N026_10 A10 0 0 NMOS l=1u w=8u
M296 N024_10 C9 0 0 NMOS l=1u w=2u
M297 N024_10 B10 0 0 NMOS l=1u w=2u
M298 N024_10 A10 0 0 NMOS l=1u w=2u
M299 N021_10 N016_10 N024_10 0 NMOS l=1u w=2u
M300 N023_10 B10 0 0 NMOS l=1u w=2u
M301 N023_10 A10 0 0 NMOS l=1u w=2u
M302 N025_10 A10 0 0 NMOS l=1u w=2u
M303 N016_10 B10 N025_10 0 NMOS l=1u w=2u
M304 N016_10 C9 N023_10 0 NMOS l=1u w=2u
M305 C10 N016_10 0 0 NMOS l=1u w=1u
M306 N009_10 N016_10 N021_10 N014_10 PMOS l=1u w=4u
M307 N019_10 N021_10 SUM10 N019_10 PMOS l=1u w=2u
M308 SUM10 N021_10 0 0 NMOS l=1u w=1u
R141 VDD N002_10 0.001
R142 VDD N003_10 0.001
R143 VDD N004_10 0.001
R144 VDD N005_10 0.001
R145 VDD N006_10 0.001
R146 VDD N007_10 0.001
R147 VDD N013_10 0.001
R148 N012_10 VDD 0.001
R149 VDD N001_10 0.001
R150 VDD N019_10 0.001
R151 VDD N014_10 0.001
R152 VDD N015_10 0.001
R153 VDD N018_10 0.001
R154 VDD N020_10 0.001
C21 SUM10 0 1p
C22 C10 0 1p

* Bit 11
M309 N001_11 A11 N010_11 N001_11 PMOS l=1u w=4u
M310 N010_11 B11 N016_11 N012_11 PMOS l=1u w=4u
M311 N002_11 A11 N008_11 N002_11 PMOS l=1u w=4u
M312 N008_11 C10 N016_11 N013_11 PMOS l=1u w=4u
M313 N003_11 B11 N008_11 N003_11 PMOS l=1u w=4u
M314 VDD N016_11 C11 N020_11 PMOS l=1u w=2u
M315 N004_11 A11 N009_11 N004_11 PMOS l=1u w=4u
M316 N005_11 B11 N009_11 N005_11 PMOS l=1u w=4u
M317 N006_11 C10 N009_11 N006_11 PMOS l=1u w=4u
M318 N007_11 A11 N011_11 N007_11 PMOS l=1u w=8u
M319 N011_11 B11 N017_11 N015_11 PMOS l=1u w=8u
M320 N017_11 C10 N021_11 N018_11 PMOS l=1u w=8u
M321 N021_11 C10 N022_11 0 NMOS l=1u w=8u
M322 N022_11 B11 N026_11 0 NMOS l=1u w=8u
M323 N026_11 A11 0 0 NMOS l=1u w=8u
M324 N024_11 C10 0 0 NMOS l=1u w=2u
M325 N024_11 B11 0 0 NMOS l=1u w=2u
M326 N024_11 A11 0 0 NMOS l=1u w=2u
M327 N021_11 N016_11 N024_11 0 NMOS l=1u w=2u
M328 N023_11 B11 0 0 NMOS l=1u w=2u
M329 N023_11 A11 0 0 NMOS l=1u w=2u
M330 N025_11 A11 0 0 NMOS l=1u w=2u
M331 N016_11 B11 N025_11 0 NMOS l=1u w=2u
M332 N016_11 C10 N023_11 0 NMOS l=1u w=2u
M333 C11 N016_11 0 0 NMOS l=1u w=1u
M334 N009_11 N016_11 N021_11 N014_11 PMOS l=1u w=4u
M335 N019_11 N021_11 SUM11 N019_11 PMOS l=1u w=2u
M336 SUM11 N021_11 0 0 NMOS l=1u w=1u
R155 VDD N002_11 0.001
R156 VDD N003_11 0.001
R157 VDD N004_11 0.001
R158 VDD N005_11 0.001
R159 VDD N006_11 0.001
R160 VDD N007_11 0.001
R161 VDD N013_11 0.001
R162 N012_11 VDD 0.001
R163 VDD N001_11 0.001
R164 VDD N019_11 0.001
R165 VDD N014_11 0.001
R166 VDD N015_11 0.001
R167 VDD N018_11 0.001
R168 VDD N020_11 0.001
C23 SUM11 0 1p
C24 C11 0 1p

* Bit 12
M337 N001_12 A12 N010_12 N001_12 PMOS l=1u w=4u
M338 N010_12 B12 N016_12 N012_12 PMOS l=1u w=4u
M339 N002_12 A12 N008_12 N002_12 PMOS l=1u w=4u
M340 N008_12 C11 N016_12 N013_12 PMOS l=1u w=4u
M341 N003_12 B12 N008_12 N003_12 PMOS l=1u w=4u
M342 VDD N016_12 C12 N020_12 PMOS l=1u w=2u
M343 N004_12 A12 N009_12 N004_12 PMOS l=1u w=4u
M344 N005_12 B12 N009_12 N005_12 PMOS l=1u w=4u
M345 N006_12 C11 N009_12 N006_12 PMOS l=1u w=4u
M346 N007_12 A12 N011_12 N007_12 PMOS l=1u w=8u
M347 N011_12 B12 N017_12 N015_12 PMOS l=1u w=8u
M348 N017_12 C11 N021_12 N018_12 PMOS l=1u w=8u
M349 N021_12 C11 N022_12 0 NMOS l=1u w=8u
M350 N022_12 B12 N026_12 0 NMOS l=1u w=8u
M351 N026_12 A12 0 0 NMOS l=1u w=8u
M352 N024_12 C11 0 0 NMOS l=1u w=2u
M353 N024_12 B12 0 0 NMOS l=1u w=2u
M354 N024_12 A12 0 0 NMOS l=1u w=2u
M355 N021_12 N016_12 N024_12 0 NMOS l=1u w=2u
M356 N023_12 B12 0 0 NMOS l=1u w=2u
M357 N023_12 A12 0 0 NMOS l=1u w=2u
M358 N025_12 A12 0 0 NMOS l=1u w=2u
M359 N016_12 B12 N025_12 0 NMOS l=1u w=2u
M360 N016_12 C11 N023_12 0 NMOS l=1u w=2u
M361 C12 N016_12 0 0 NMOS l=1u w=1u
M362 N009_12 N016_12 N021_12 N014_12 PMOS l=1u w=4u
M363 N019_12 N021_12 SUM12 N019_12 PMOS l=1u w=2u
M364 SUM12 N021_12 0 0 NMOS l=1u w=1u
R169 VDD N002_12 0.001
R170 VDD N003_12 0.001
R171 VDD N004_12 0.001
R172 VDD N005_12 0.001
R173 VDD N006_12 0.001
R174 VDD N007_12 0.001
R175 VDD N013_12 0.001
R176 N012_12 VDD 0.001
R177 VDD N001_12 0.001
R178 VDD N019_12 0.001
R179 VDD N014_12 0.001
R180 VDD N015_12 0.001
R181 VDD N018_12 0.001
R182 VDD N020_12 0.001
C25 SUM12 0 1p
C26 C12 0 1p

* Bit 13
M365 N001_13 A13 N010_13 N001_13 PMOS l=1u w=4u
M366 N010_13 B13 N016_13 N012_13 PMOS l=1u w=4u
M367 N002_13 A13 N008_13 N002_13 PMOS l=1u w=4u
M368 N008_13 C12 N016_13 N013_13 PMOS l=1u w=4u
M369 N003_13 B13 N008_13 N003_13 PMOS l=1u w=4u
M370 VDD N016_13 C13 N020_13 PMOS l=1u w=2u
M371 N004_13 A13 N009_13 N004_13 PMOS l=1u w=4u
M372 N005_13 B13 N009_13 N005_13 PMOS l=1u w=4u
M373 N006_13 C12 N009_13 N006_13 PMOS l=1u w=4u
M374 N007_13 A13 N011_13 N007_13 PMOS l=1u w=8u
M375 N011_13 B13 N017_13 N015_13 PMOS l=1u w=8u
M376 N017_13 C12 N021_13 N018_13 PMOS l=1u w=8u
M377 N021_13 C12 N022_13 0 NMOS l=1u w=8u
M378 N022_13 B13 N026_13 0 NMOS l=1u w=8u
M379 N026_13 A13 0 0 NMOS l=1u w=8u
M380 N024_13 C12 0 0 NMOS l=1u w=2u
M381 N024_13 B13 0 0 NMOS l=1u w=2u
M382 N024_13 A13 0 0 NMOS l=1u w=2u
M383 N021_13 N016_13 N024_13 0 NMOS l=1u w=2u
M384 N023_13 B13 0 0 NMOS l=1u w=2u
M385 N023_13 A13 0 0 NMOS l=1u w=2u
M386 N025_13 A13 0 0 NMOS l=1u w=2u
M387 N016_13 B13 N025_13 0 NMOS l=1u w=2u
M388 N016_13 C12 N023_13 0 NMOS l=1u w=2u
M389 C13 N016_13 0 0 NMOS l=1u w=1u
M390 N009_13 N016_13 N021_13 N014_13 PMOS l=1u w=4u
M391 N019_13 N021_13 SUM13 N019_13 PMOS l=1u w=2u
M392 SUM13 N021_13 0 0 NMOS l=1u w=1u
R183 VDD N002_13 0.001
R184 VDD N003_13 0.001
R185 VDD N004_13 0.001
R186 VDD N005_13 0.001
R187 VDD N006_13 0.001
R188 VDD N007_13 0.001
R189 VDD N013_13 0.001
R190 N012_13 VDD 0.001
R191 VDD N001_13 0.001
R192 VDD N019_13 0.001
R193 VDD N014_13 0.001
R194 VDD N015_13 0.001
R195 VDD N018_13 0.001
R196 VDD N020_13 0.001
C27 SUM13 0 1p
C28 C13 0 1p

* Bit 14
M393 N001_14 A14 N010_14 N001_14 PMOS l=1u w=4u
M394 N010_14 B14 N016_14 N012_14 PMOS l=1u w=4u
M395 N002_14 A14 N008_14 N002_14 PMOS l=1u w=4u
M396 N008_14 C13 N016_14 N013_14 PMOS l=1u w=4u
M397 N003_14 B14 N008_14 N003_14 PMOS l=1u w=4u
M398 VDD N016_14 C14 N020_14 PMOS l=1u w=2u
M399 N004_14 A14 N009_14 N004_14 PMOS l=1u w=4u
M400 N005_14 B14 N009_14 N005_14 PMOS l=1u w=4u
M401 N006_14 C13 N009_14 N006_14 PMOS l=1u w=4u
M402 N007_14 A14 N011_14 N007_14 PMOS l=1u w=8u
M403 N011_14 B14 N017_14 N015_14 PMOS l=1u w=8u
M404 N017_14 C13 N021_14 N018_14 PMOS l=1u w=8u
M405 N021_14 C13 N022_14 0 NMOS l=1u w=8u
M406 N022_14 B14 N026_14 0 NMOS l=1u w=8u
M407 N026_14 A14 0 0 NMOS l=1u w=8u
M408 N024_14 C13 0 0 NMOS l=1u w=2u
M409 N024_14 B14 0 0 NMOS l=1u w=2u
M410 N024_14 A14 0 0 NMOS l=1u w=2u
M411 N021_14 N016_14 N024_14 0 NMOS l=1u w=2u
M412 N023_14 B14 0 0 NMOS l=1u w=2u
M413 N023_14 A14 0 0 NMOS l=1u w=2u
M414 N025_14 A14 0 0 NMOS l=1u w=2u
M415 N016_14 B14 N025_14 0 NMOS l=1u w=2u
M416 N016_14 C13 N023_14 0 NMOS l=1u w=2u
M417 C14 N016_14 0 0 NMOS l=1u w=1u
M418 N009_14 N016_14 N021_14 N014_14 PMOS l=1u w=4u
M419 N019_14 N021_14 SUM14 N019_14 PMOS l=1u w=2u
M420 SUM14 N021_14 0 0 NMOS l=1u w=1u
R197 VDD N002_14 0.001
R198 VDD N003_14 0.001
R199 VDD N004_14 0.001
R200 VDD N005_14 0.001
R201 VDD N006_14 0.001
R202 VDD N007_14 0.001
R203 VDD N013_14 0.001
R204 N012_14 VDD 0.001
R205 VDD N001_14 0.001
R206 VDD N019_14 0.001
R207 VDD N014_14 0.001
R208 VDD N015_14 0.001
R209 VDD N018_14 0.001
R210 VDD N020_14 0.001
C29 SUM14 0 1p
C30 C14 0 1p

* Bit 15
M421 N001_15 A15 N010_15 N001_15 PMOS l=1u w=4u
M422 N010_15 B15 N016_15 N012_15 PMOS l=1u w=4u
M423 N002_15 A15 N008_15 N002_15 PMOS l=1u w=4u
M424 N008_15 C14 N016_15 N013_15 PMOS l=1u w=4u
M425 N003_15 B15 N008_15 N003_15 PMOS l=1u w=4u
M426 VDD N016_15 C15 N020_15 PMOS l=1u w=2u
M427 N004_15 A15 N009_15 N004_15 PMOS l=1u w=4u
M428 N005_15 B15 N009_15 N005_15 PMOS l=1u w=4u
M429 N006_15 C14 N009_15 N006_15 PMOS l=1u w=4u
M430 N007_15 A15 N011_15 N007_15 PMOS l=1u w=8u
M431 N011_15 B15 N017_15 N015_15 PMOS l=1u w=8u
M432 N017_15 C14 N021_15 N018_15 PMOS l=1u w=8u
M433 N021_15 C14 N022_15 0 NMOS l=1u w=8u
M434 N022_15 B15 N026_15 0 NMOS l=1u w=8u
M435 N026_15 A15 0 0 NMOS l=1u w=8u
M436 N024_15 C14 0 0 NMOS l=1u w=2u
M437 N024_15 B15 0 0 NMOS l=1u w=2u
M438 N024_15 A15 0 0 NMOS l=1u w=2u
M439 N021_15 N016_15 N024_15 0 NMOS l=1u w=2u
M440 N023_15 B15 0 0 NMOS l=1u w=2u
M441 N023_15 A15 0 0 NMOS l=1u w=2u
M442 N025_15 A15 0 0 NMOS l=1u w=2u
M443 N016_15 B15 N025_15 0 NMOS l=1u w=2u
M444 N016_15 C14 N023_15 0 NMOS l=1u w=2u
M445 C15 N016_15 0 0 NMOS l=1u w=1u
M446 N009_15 N016_15 N021_15 N014_15 PMOS l=1u w=4u
M447 N019_15 N021_15 SUM15 N019_15 PMOS l=1u w=2u
M448 SUM15 N021_15 0 0 NMOS l=1u w=1u
R211 VDD N002_15 0.001
R212 VDD N003_15 0.001
R213 VDD N004_15 0.001
R214 VDD N005_15 0.001
R215 VDD N006_15 0.001
R216 VDD N007_15 0.001
R217 VDD N013_15 0.001
R218 N012_15 VDD 0.001
R219 VDD N001_15 0.001
R220 VDD N019_15 0.001
R221 VDD N014_15 0.001
R222 VDD N015_15 0.001
R223 VDD N018_15 0.001
R224 VDD N020_15 0.001
C31 SUM15 0 1p
C32 C15 0 1p

* Bit 16
M449 N001_16 A16 N010_16 N001_16 PMOS l=1u w=4u
M450 N010_16 B16 N016_16 N012_16 PMOS l=1u w=4u
M451 N002_16 A16 N008_16 N002_16 PMOS l=1u w=4u
M452 N008_16 C15 N016_16 N013_16 PMOS l=1u w=4u
M453 N003_16 B16 N008_16 N003_16 PMOS l=1u w=4u
M454 VDD N016_16 C16 N020_16 PMOS l=1u w=2u
M455 N004_16 A16 N009_16 N004_16 PMOS l=1u w=4u
M456 N005_16 B16 N009_16 N005_16 PMOS l=1u w=4u
M457 N006_16 C15 N009_16 N006_16 PMOS l=1u w=4u
M458 N007_16 A16 N011_16 N007_16 PMOS l=1u w=8u
M459 N011_16 B16 N017_16 N015_16 PMOS l=1u w=8u
M460 N017_16 C15 N021_16 N018_16 PMOS l=1u w=8u
M461 N021_16 C15 N022_16 0 NMOS l=1u w=8u
M462 N022_16 B16 N026_16 0 NMOS l=1u w=8u
M463 N026_16 A16 0 0 NMOS l=1u w=8u
M464 N024_16 C15 0 0 NMOS l=1u w=2u
M465 N024_16 B16 0 0 NMOS l=1u w=2u
M466 N024_16 A16 0 0 NMOS l=1u w=2u
M467 N021_16 N016_16 N024_16 0 NMOS l=1u w=2u
M468 N023_16 B16 0 0 NMOS l=1u w=2u
M469 N023_16 A16 0 0 NMOS l=1u w=2u
M470 N025_16 A16 0 0 NMOS l=1u w=2u
M471 N016_16 B16 N025_16 0 NMOS l=1u w=2u
M472 N016_16 C15 N023_16 0 NMOS l=1u w=2u
M473 C16 N016_16 0 0 NMOS l=1u w=1u
M474 N009_16 N016_16 N021_16 N014_16 PMOS l=1u w=4u
M475 N019_16 N021_16 SUM16 N019_16 PMOS l=1u w=2u
M476 SUM16 N021_16 0 0 NMOS l=1u w=1u
R225 VDD N002_16 0.001
R226 VDD N003_16 0.001
R227 VDD N004_16 0.001
R228 VDD N005_16 0.001
R229 VDD N006_16 0.001
R230 VDD N007_16 0.001
R231 VDD N013_16 0.001
R232 N012_16 VDD 0.001
R233 VDD N001_16 0.001
R234 VDD N019_16 0.001
R235 VDD N014_16 0.001
R236 VDD N015_16 0.001
R237 VDD N018_16 0.001
R238 VDD N020_16 0.001
C33 SUM16 0 1p
C34 C16 0 1p

* Bit 17
M477 N001_17 A17 N010_17 N001_17 PMOS l=1u w=4u
M478 N010_17 B17 N016_17 N012_17 PMOS l=1u w=4u
M479 N002_17 A17 N008_17 N002_17 PMOS l=1u w=4u
M480 N008_17 C16 N016_17 N013_17 PMOS l=1u w=4u
M481 N003_17 B17 N008_17 N003_17 PMOS l=1u w=4u
M482 VDD N016_17 C17 N020_17 PMOS l=1u w=2u
M483 N004_17 A17 N009_17 N004_17 PMOS l=1u w=4u
M484 N005_17 B17 N009_17 N005_17 PMOS l=1u w=4u
M485 N006_17 C16 N009_17 N006_17 PMOS l=1u w=4u
M486 N007_17 A17 N011_17 N007_17 PMOS l=1u w=8u
M487 N011_17 B17 N017_17 N015_17 PMOS l=1u w=8u
M488 N017_17 C16 N021_17 N018_17 PMOS l=1u w=8u
M489 N021_17 C16 N022_17 0 NMOS l=1u w=8u
M490 N022_17 B17 N026_17 0 NMOS l=1u w=8u
M491 N026_17 A17 0 0 NMOS l=1u w=8u
M492 N024_17 C16 0 0 NMOS l=1u w=2u
M493 N024_17 B17 0 0 NMOS l=1u w=2u
M494 N024_17 A17 0 0 NMOS l=1u w=2u
M495 N021_17 N016_17 N024_17 0 NMOS l=1u w=2u
M496 N023_17 B17 0 0 NMOS l=1u w=2u
M497 N023_17 A17 0 0 NMOS l=1u w=2u
M498 N025_17 A17 0 0 NMOS l=1u w=2u
M499 N016_17 B17 N025_17 0 NMOS l=1u w=2u
M500 N016_17 C16 N023_17 0 NMOS l=1u w=2u
M501 C17 N016_17 0 0 NMOS l=1u w=1u
M502 N009_17 N016_17 N021_17 N014_17 PMOS l=1u w=4u
M503 N019_17 N021_17 SUM17 N019_17 PMOS l=1u w=2u
M504 SUM17 N021_17 0 0 NMOS l=1u w=1u
R239 VDD N002_17 0.001
R240 VDD N003_17 0.001
R241 VDD N004_17 0.001
R242 VDD N005_17 0.001
R243 VDD N006_17 0.001
R244 VDD N007_17 0.001
R245 VDD N013_17 0.001
R246 N012_17 VDD 0.001
R247 VDD N001_17 0.001
R248 VDD N019_17 0.001
R249 VDD N014_17 0.001
R250 VDD N015_17 0.001
R251 VDD N018_17 0.001
R252 VDD N020_17 0.001
C35 SUM17 0 1p
C36 C17 0 1p

* Bit 18
M505 N001_18 A18 N010_18 N001_18 PMOS l=1u w=4u
M506 N010_18 B18 N016_18 N012_18 PMOS l=1u w=4u
M507 N002_18 A18 N008_18 N002_18 PMOS l=1u w=4u
M508 N008_18 C17 N016_18 N013_18 PMOS l=1u w=4u
M509 N003_18 B18 N008_18 N003_18 PMOS l=1u w=4u
M510 VDD N016_18 C18 N020_18 PMOS l=1u w=2u
M511 N004_18 A18 N009_18 N004_18 PMOS l=1u w=4u
M512 N005_18 B18 N009_18 N005_18 PMOS l=1u w=4u
M513 N006_18 C17 N009_18 N006_18 PMOS l=1u w=4u
M514 N007_18 A18 N011_18 N007_18 PMOS l=1u w=8u
M515 N011_18 B18 N017_18 N015_18 PMOS l=1u w=8u
M516 N017_18 C17 N021_18 N018_18 PMOS l=1u w=8u
M517 N021_18 C17 N022_18 0 NMOS l=1u w=8u
M518 N022_18 B18 N026_18 0 NMOS l=1u w=8u
M519 N026_18 A18 0 0 NMOS l=1u w=8u
M520 N024_18 C17 0 0 NMOS l=1u w=2u
M521 N024_18 B18 0 0 NMOS l=1u w=2u
M522 N024_18 A18 0 0 NMOS l=1u w=2u
M523 N021_18 N016_18 N024_18 0 NMOS l=1u w=2u
M524 N023_18 B18 0 0 NMOS l=1u w=2u
M525 N023_18 A18 0 0 NMOS l=1u w=2u
M526 N025_18 A18 0 0 NMOS l=1u w=2u
M527 N016_18 B18 N025_18 0 NMOS l=1u w=2u
M528 N016_18 C17 N023_18 0 NMOS l=1u w=2u
M529 C18 N016_18 0 0 NMOS l=1u w=1u
M530 N009_18 N016_18 N021_18 N014_18 PMOS l=1u w=4u
M531 N019_18 N021_18 SUM18 N019_18 PMOS l=1u w=2u
M532 SUM18 N021_18 0 0 NMOS l=1u w=1u
R253 VDD N002_18 0.001
R254 VDD N003_18 0.001
R255 VDD N004_18 0.001
R256 VDD N005_18 0.001
R257 VDD N006_18 0.001
R258 VDD N007_18 0.001
R259 VDD N013_18 0.001
R260 N012_18 VDD 0.001
R261 VDD N001_18 0.001
R262 VDD N019_18 0.001
R263 VDD N014_18 0.001
R264 VDD N015_18 0.001
R265 VDD N018_18 0.001
R266 VDD N020_18 0.001
C37 SUM18 0 1p
C38 C18 0 1p

* Bit 19
M533 N001_19 A19 N010_19 N001_19 PMOS l=1u w=4u
M534 N010_19 B19 N016_19 N012_19 PMOS l=1u w=4u
M535 N002_19 A19 N008_19 N002_19 PMOS l=1u w=4u
M536 N008_19 C18 N016_19 N013_19 PMOS l=1u w=4u
M537 N003_19 B19 N008_19 N003_19 PMOS l=1u w=4u
M538 VDD N016_19 C19 N020_19 PMOS l=1u w=2u
M539 N004_19 A19 N009_19 N004_19 PMOS l=1u w=4u
M540 N005_19 B19 N009_19 N005_19 PMOS l=1u w=4u
M541 N006_19 C18 N009_19 N006_19 PMOS l=1u w=4u
M542 N007_19 A19 N011_19 N007_19 PMOS l=1u w=8u
M543 N011_19 B19 N017_19 N015_19 PMOS l=1u w=8u
M544 N017_19 C18 N021_19 N018_19 PMOS l=1u w=8u
M545 N021_19 C18 N022_19 0 NMOS l=1u w=8u
M546 N022_19 B19 N026_19 0 NMOS l=1u w=8u
M547 N026_19 A19 0 0 NMOS l=1u w=8u
M548 N024_19 C18 0 0 NMOS l=1u w=2u
M549 N024_19 B19 0 0 NMOS l=1u w=2u
M550 N024_19 A19 0 0 NMOS l=1u w=2u
M551 N021_19 N016_19 N024_19 0 NMOS l=1u w=2u
M552 N023_19 B19 0 0 NMOS l=1u w=2u
M553 N023_19 A19 0 0 NMOS l=1u w=2u
M554 N025_19 A19 0 0 NMOS l=1u w=2u
M555 N016_19 B19 N025_19 0 NMOS l=1u w=2u