* 64-bit Full Adder Netlist
* Generated file: 64bit_adder.txt
* Isolation Resistor = 0.01 ohm added to all non-ground nodes

* Models
.model nmos nmos (level=14 version=4.8.2)
.model pmos pmos (level=14 version=4.8.2)

* Simulation flags
.options acct
*.options num_threads=32
.sparse
.output Results/64bit_full_adder_28t_res_full.raw


* --- Bit 0 ---
R_VDD_M1_0_d VDD VDD_M1_0_d 0.01
R_A_0_M1_0_g A_0 A_0_M1_0_g 0.01
R_N003_0_M1_0_s N003_0 N003_0_M1_0_s 0.01
R_VDD_M1_0_b VDD VDD_M1_0_b 0.01
M1_0 VDD_M1_0_d A_0_M1_0_g N003_0_M1_0_s VDD_M1_0_b pmos l=1u w=4u
R_N003_0_M2_0_d N003_0 N003_0_M2_0_d 0.01
R_B_0_M2_0_g B_0 B_0_M2_0_g 0.01
R_N005_0_M2_0_s N005_0 N005_0_M2_0_s 0.01
R_VDD_M2_0_b VDD VDD_M2_0_b 0.01
M2_0 N003_0_M2_0_d B_0_M2_0_g N005_0_M2_0_s VDD_M2_0_b pmos l=1u w=4u
R_VDD_M3_0_d VDD VDD_M3_0_d 0.01
R_A_0_M3_0_g A_0 A_0_M3_0_g 0.01
R_N001_0_M3_0_s N001_0 N001_0_M3_0_s 0.01
R_VDD_M3_0_b VDD VDD_M3_0_b 0.01
M3_0 VDD_M3_0_d A_0_M3_0_g N001_0_M3_0_s VDD_M3_0_b pmos l=1u w=4u
R_N001_0_M4_0_d N001_0 N001_0_M4_0_d 0.01
R_C_0_M4_0_g C_0 C_0_M4_0_g 0.01
R_N005_0_M4_0_s N005_0 N005_0_M4_0_s 0.01
R_VDD_M4_0_b VDD VDD_M4_0_b 0.01
M4_0 N001_0_M4_0_d C_0_M4_0_g N005_0_M4_0_s VDD_M4_0_b pmos l=1u w=4u
R_VDD_M5_0_d VDD VDD_M5_0_d 0.01
R_B_0_M5_0_g B_0 B_0_M5_0_g 0.01
R_N001_0_M5_0_s N001_0 N001_0_M5_0_s 0.01
R_VDD_M5_0_b VDD VDD_M5_0_b 0.01
M5_0 VDD_M5_0_d B_0_M5_0_g N001_0_M5_0_s VDD_M5_0_b pmos l=1u w=4u
R_VDD_M6_0_d VDD VDD_M6_0_d 0.01
R_N005_0_M6_0_g N005_0 N005_0_M6_0_g 0.01
R_C_1_M6_0_s C_1 C_1_M6_0_s 0.01
R_VDD_M6_0_b VDD VDD_M6_0_b 0.01
M6_0 VDD_M6_0_d N005_0_M6_0_g C_1_M6_0_s VDD_M6_0_b pmos l=1u w=2u
R_VDD_M7_0_d VDD VDD_M7_0_d 0.01
R_A_0_M7_0_g A_0 A_0_M7_0_g 0.01
R_N002_0_M7_0_s N002_0 N002_0_M7_0_s 0.01
R_VDD_M7_0_b VDD VDD_M7_0_b 0.01
M7_0 VDD_M7_0_d A_0_M7_0_g N002_0_M7_0_s VDD_M7_0_b pmos l=1u w=4u
R_VDD_M8_0_d VDD VDD_M8_0_d 0.01
R_B_0_M8_0_g B_0 B_0_M8_0_g 0.01
R_N002_0_M8_0_s N002_0 N002_0_M8_0_s 0.01
R_VDD_M8_0_b VDD VDD_M8_0_b 0.01
M8_0 VDD_M8_0_d B_0_M8_0_g N002_0_M8_0_s VDD_M8_0_b pmos l=1u w=4u
R_VDD_M9_0_d VDD VDD_M9_0_d 0.01
R_C_0_M9_0_g C_0 C_0_M9_0_g 0.01
R_N002_0_M9_0_s N002_0 N002_0_M9_0_s 0.01
R_VDD_M9_0_b VDD VDD_M9_0_b 0.01
M9_0 VDD_M9_0_d C_0_M9_0_g N002_0_M9_0_s VDD_M9_0_b pmos l=1u w=4u
R_VDD_M10_0_d VDD VDD_M10_0_d 0.01
R_A_0_M10_0_g A_0 A_0_M10_0_g 0.01
R_N004_0_M10_0_s N004_0 N004_0_M10_0_s 0.01
R_VDD_M10_0_b VDD VDD_M10_0_b 0.01
M10_0 VDD_M10_0_d A_0_M10_0_g N004_0_M10_0_s VDD_M10_0_b pmos l=1u w=8u
R_N004_0_M11_0_d N004_0 N004_0_M11_0_d 0.01
R_B_0_M11_0_g B_0 B_0_M11_0_g 0.01
R_N006_0_M11_0_s N006_0 N006_0_M11_0_s 0.01
R_VDD_M11_0_b VDD VDD_M11_0_b 0.01
M11_0 N004_0_M11_0_d B_0_M11_0_g N006_0_M11_0_s VDD_M11_0_b pmos l=1u w=8u
R_N006_0_M12_0_d N006_0 N006_0_M12_0_d 0.01
R_C_0_M12_0_g C_0 C_0_M12_0_g 0.01
R_N007_0_M12_0_s N007_0 N007_0_M12_0_s 0.01
R_VDD_M12_0_b VDD VDD_M12_0_b 0.01
M12_0 N006_0_M12_0_d C_0_M12_0_g N007_0_M12_0_s VDD_M12_0_b pmos l=1u w=8u
R_N007_0_M13_0_d N007_0 N007_0_M13_0_d 0.01
R_C_0_M13_0_g C_0 C_0_M13_0_g 0.01
R_N008_0_M13_0_s N008_0 N008_0_M13_0_s 0.01
M13_0 N007_0_M13_0_d C_0_M13_0_g N008_0_M13_0_s 0 nmos l=1u w=8u
R_N008_0_M14_0_d N008_0 N008_0_M14_0_d 0.01
R_B_0_M14_0_g B_0 B_0_M14_0_g 0.01
R_N012_0_M14_0_s N012_0 N012_0_M14_0_s 0.01
M14_0 N008_0_M14_0_d B_0_M14_0_g N012_0_M14_0_s 0 nmos l=1u w=8u
R_N012_0_M15_0_d N012_0 N012_0_M15_0_d 0.01
R_A_0_M15_0_g A_0 A_0_M15_0_g 0.01
M15_0 N012_0_M15_0_d A_0_M15_0_g 0 0 nmos l=1u w=8u
R_N010_0_M16_0_d N010_0 N010_0_M16_0_d 0.01
R_C_0_M16_0_g C_0 C_0_M16_0_g 0.01
M16_0 N010_0_M16_0_d C_0_M16_0_g 0 0 nmos l=1u w=2u
R_N010_0_M17_0_d N010_0 N010_0_M17_0_d 0.01
R_B_0_M17_0_g B_0 B_0_M17_0_g 0.01
M17_0 N010_0_M17_0_d B_0_M17_0_g 0 0 nmos l=1u w=2u
R_N010_0_M18_0_d N010_0 N010_0_M18_0_d 0.01
R_A_0_M18_0_g A_0 A_0_M18_0_g 0.01
M18_0 N010_0_M18_0_d A_0_M18_0_g 0 0 nmos l=1u w=2u
R_N007_0_M19_0_d N007_0 N007_0_M19_0_d 0.01
R_N005_0_M19_0_g N005_0 N005_0_M19_0_g 0.01
R_N010_0_M19_0_s N010_0 N010_0_M19_0_s 0.01
M19_0 N007_0_M19_0_d N005_0_M19_0_g N010_0_M19_0_s 0 nmos l=1u w=2u
R_N009_0_M20_0_d N009_0 N009_0_M20_0_d 0.01
R_B_0_M20_0_g B_0 B_0_M20_0_g 0.01
M20_0 N009_0_M20_0_d B_0_M20_0_g 0 0 nmos l=1u w=2u
R_N009_0_M21_0_d N009_0 N009_0_M21_0_d 0.01
R_A_0_M21_0_g A_0 A_0_M21_0_g 0.01
M21_0 N009_0_M21_0_d A_0_M21_0_g 0 0 nmos l=1u w=2u
R_N011_0_M22_0_d N011_0 N011_0_M22_0_d 0.01
R_A_0_M22_0_g A_0 A_0_M22_0_g 0.01
M22_0 N011_0_M22_0_d A_0_M22_0_g 0 0 nmos l=1u w=2u
R_N005_0_M23_0_d N005_0 N005_0_M23_0_d 0.01
R_B_0_M23_0_g B_0 B_0_M23_0_g 0.01
R_N011_0_M23_0_s N011_0 N011_0_M23_0_s 0.01
M23_0 N005_0_M23_0_d B_0_M23_0_g N011_0_M23_0_s 0 nmos l=1u w=2u
R_N005_0_M24_0_d N005_0 N005_0_M24_0_d 0.01
R_C_0_M24_0_g C_0 C_0_M24_0_g 0.01
R_N009_0_M24_0_s N009_0 N009_0_M24_0_s 0.01
M24_0 N005_0_M24_0_d C_0_M24_0_g N009_0_M24_0_s 0 nmos l=1u w=2u
R_C_1_M25_0_d C_1 C_1_M25_0_d 0.01
R_N005_0_M25_0_g N005_0 N005_0_M25_0_g 0.01
M25_0 C_1_M25_0_d N005_0_M25_0_g 0 0 nmos l=1u w=1u
R_N002_0_M26_0_d N002_0 N002_0_M26_0_d 0.01
R_N005_0_M26_0_g N005_0 N005_0_M26_0_g 0.01
R_N007_0_M26_0_s N007_0 N007_0_M26_0_s 0.01
R_VDD_M26_0_b VDD VDD_M26_0_b 0.01
M26_0 N002_0_M26_0_d N005_0_M26_0_g N007_0_M26_0_s VDD_M26_0_b pmos l=1u w=4u
R_VDD_M27_0_d VDD VDD_M27_0_d 0.01
R_N007_0_M27_0_g N007_0 N007_0_M27_0_g 0.01
R_S_0_M27_0_s S_0 S_0_M27_0_s 0.01
R_VDD_M27_0_b VDD VDD_M27_0_b 0.01
M27_0 VDD_M27_0_d N007_0_M27_0_g S_0_M27_0_s VDD_M27_0_b pmos l=1u w=2u
R_S_0_M28_0_d S_0 S_0_M28_0_d 0.01
R_N007_0_M28_0_g N007_0 N007_0_M28_0_g 0.01
M28_0 S_0_M28_0_d N007_0_M28_0_g 0 0 nmos l=1u w=1u
C_S_0 S_0 0 1f
* --- Bit 1 ---
R_VDD_M1_1_d VDD VDD_M1_1_d 0.01
R_A_1_M1_1_g A_1 A_1_M1_1_g 0.01
R_N003_1_M1_1_s N003_1 N003_1_M1_1_s 0.01
R_VDD_M1_1_b VDD VDD_M1_1_b 0.01
M1_1 VDD_M1_1_d A_1_M1_1_g N003_1_M1_1_s VDD_M1_1_b pmos l=1u w=4u
R_N003_1_M2_1_d N003_1 N003_1_M2_1_d 0.01
R_B_1_M2_1_g B_1 B_1_M2_1_g 0.01
R_N005_1_M2_1_s N005_1 N005_1_M2_1_s 0.01
R_VDD_M2_1_b VDD VDD_M2_1_b 0.01
M2_1 N003_1_M2_1_d B_1_M2_1_g N005_1_M2_1_s VDD_M2_1_b pmos l=1u w=4u
R_VDD_M3_1_d VDD VDD_M3_1_d 0.01
R_A_1_M3_1_g A_1 A_1_M3_1_g 0.01
R_N001_1_M3_1_s N001_1 N001_1_M3_1_s 0.01
R_VDD_M3_1_b VDD VDD_M3_1_b 0.01
M3_1 VDD_M3_1_d A_1_M3_1_g N001_1_M3_1_s VDD_M3_1_b pmos l=1u w=4u
R_N001_1_M4_1_d N001_1 N001_1_M4_1_d 0.01
R_C_1_M4_1_g C_1 C_1_M4_1_g 0.01
R_N005_1_M4_1_s N005_1 N005_1_M4_1_s 0.01
R_VDD_M4_1_b VDD VDD_M4_1_b 0.01
M4_1 N001_1_M4_1_d C_1_M4_1_g N005_1_M4_1_s VDD_M4_1_b pmos l=1u w=4u
R_VDD_M5_1_d VDD VDD_M5_1_d 0.01
R_B_1_M5_1_g B_1 B_1_M5_1_g 0.01
R_N001_1_M5_1_s N001_1 N001_1_M5_1_s 0.01
R_VDD_M5_1_b VDD VDD_M5_1_b 0.01
M5_1 VDD_M5_1_d B_1_M5_1_g N001_1_M5_1_s VDD_M5_1_b pmos l=1u w=4u
R_VDD_M6_1_d VDD VDD_M6_1_d 0.01
R_N005_1_M6_1_g N005_1 N005_1_M6_1_g 0.01
R_C_2_M6_1_s C_2 C_2_M6_1_s 0.01
R_VDD_M6_1_b VDD VDD_M6_1_b 0.01
M6_1 VDD_M6_1_d N005_1_M6_1_g C_2_M6_1_s VDD_M6_1_b pmos l=1u w=2u
R_VDD_M7_1_d VDD VDD_M7_1_d 0.01
R_A_1_M7_1_g A_1 A_1_M7_1_g 0.01
R_N002_1_M7_1_s N002_1 N002_1_M7_1_s 0.01
R_VDD_M7_1_b VDD VDD_M7_1_b 0.01
M7_1 VDD_M7_1_d A_1_M7_1_g N002_1_M7_1_s VDD_M7_1_b pmos l=1u w=4u
R_VDD_M8_1_d VDD VDD_M8_1_d 0.01
R_B_1_M8_1_g B_1 B_1_M8_1_g 0.01
R_N002_1_M8_1_s N002_1 N002_1_M8_1_s 0.01
R_VDD_M8_1_b VDD VDD_M8_1_b 0.01
M8_1 VDD_M8_1_d B_1_M8_1_g N002_1_M8_1_s VDD_M8_1_b pmos l=1u w=4u
R_VDD_M9_1_d VDD VDD_M9_1_d 0.01
R_C_1_M9_1_g C_1 C_1_M9_1_g 0.01
R_N002_1_M9_1_s N002_1 N002_1_M9_1_s 0.01
R_VDD_M9_1_b VDD VDD_M9_1_b 0.01
M9_1 VDD_M9_1_d C_1_M9_1_g N002_1_M9_1_s VDD_M9_1_b pmos l=1u w=4u
R_VDD_M10_1_d VDD VDD_M10_1_d 0.01
R_A_1_M10_1_g A_1 A_1_M10_1_g 0.01
R_N004_1_M10_1_s N004_1 N004_1_M10_1_s 0.01
R_VDD_M10_1_b VDD VDD_M10_1_b 0.01
M10_1 VDD_M10_1_d A_1_M10_1_g N004_1_M10_1_s VDD_M10_1_b pmos l=1u w=8u
R_N004_1_M11_1_d N004_1 N004_1_M11_1_d 0.01
R_B_1_M11_1_g B_1 B_1_M11_1_g 0.01
R_N006_1_M11_1_s N006_1 N006_1_M11_1_s 0.01
R_VDD_M11_1_b VDD VDD_M11_1_b 0.01
M11_1 N004_1_M11_1_d B_1_M11_1_g N006_1_M11_1_s VDD_M11_1_b pmos l=1u w=8u
R_N006_1_M12_1_d N006_1 N006_1_M12_1_d 0.01
R_C_1_M12_1_g C_1 C_1_M12_1_g 0.01
R_N007_1_M12_1_s N007_1 N007_1_M12_1_s 0.01
R_VDD_M12_1_b VDD VDD_M12_1_b 0.01
M12_1 N006_1_M12_1_d C_1_M12_1_g N007_1_M12_1_s VDD_M12_1_b pmos l=1u w=8u
R_N007_1_M13_1_d N007_1 N007_1_M13_1_d 0.01
R_C_1_M13_1_g C_1 C_1_M13_1_g 0.01
R_N008_1_M13_1_s N008_1 N008_1_M13_1_s 0.01
M13_1 N007_1_M13_1_d C_1_M13_1_g N008_1_M13_1_s 0 nmos l=1u w=8u
R_N008_1_M14_1_d N008_1 N008_1_M14_1_d 0.01
R_B_1_M14_1_g B_1 B_1_M14_1_g 0.01
R_N012_1_M14_1_s N012_1 N012_1_M14_1_s 0.01
M14_1 N008_1_M14_1_d B_1_M14_1_g N012_1_M14_1_s 0 nmos l=1u w=8u
R_N012_1_M15_1_d N012_1 N012_1_M15_1_d 0.01
R_A_1_M15_1_g A_1 A_1_M15_1_g 0.01
M15_1 N012_1_M15_1_d A_1_M15_1_g 0 0 nmos l=1u w=8u
R_N010_1_M16_1_d N010_1 N010_1_M16_1_d 0.01
R_C_1_M16_1_g C_1 C_1_M16_1_g 0.01
M16_1 N010_1_M16_1_d C_1_M16_1_g 0 0 nmos l=1u w=2u
R_N010_1_M17_1_d N010_1 N010_1_M17_1_d 0.01
R_B_1_M17_1_g B_1 B_1_M17_1_g 0.01
M17_1 N010_1_M17_1_d B_1_M17_1_g 0 0 nmos l=1u w=2u
R_N010_1_M18_1_d N010_1 N010_1_M18_1_d 0.01
R_A_1_M18_1_g A_1 A_1_M18_1_g 0.01
M18_1 N010_1_M18_1_d A_1_M18_1_g 0 0 nmos l=1u w=2u
R_N007_1_M19_1_d N007_1 N007_1_M19_1_d 0.01
R_N005_1_M19_1_g N005_1 N005_1_M19_1_g 0.01
R_N010_1_M19_1_s N010_1 N010_1_M19_1_s 0.01
M19_1 N007_1_M19_1_d N005_1_M19_1_g N010_1_M19_1_s 0 nmos l=1u w=2u
R_N009_1_M20_1_d N009_1 N009_1_M20_1_d 0.01
R_B_1_M20_1_g B_1 B_1_M20_1_g 0.01
M20_1 N009_1_M20_1_d B_1_M20_1_g 0 0 nmos l=1u w=2u
R_N009_1_M21_1_d N009_1 N009_1_M21_1_d 0.01
R_A_1_M21_1_g A_1 A_1_M21_1_g 0.01
M21_1 N009_1_M21_1_d A_1_M21_1_g 0 0 nmos l=1u w=2u
R_N011_1_M22_1_d N011_1 N011_1_M22_1_d 0.01
R_A_1_M22_1_g A_1 A_1_M22_1_g 0.01
M22_1 N011_1_M22_1_d A_1_M22_1_g 0 0 nmos l=1u w=2u
R_N005_1_M23_1_d N005_1 N005_1_M23_1_d 0.01
R_B_1_M23_1_g B_1 B_1_M23_1_g 0.01
R_N011_1_M23_1_s N011_1 N011_1_M23_1_s 0.01
M23_1 N005_1_M23_1_d B_1_M23_1_g N011_1_M23_1_s 0 nmos l=1u w=2u
R_N005_1_M24_1_d N005_1 N005_1_M24_1_d 0.01
R_C_1_M24_1_g C_1 C_1_M24_1_g 0.01
R_N009_1_M24_1_s N009_1 N009_1_M24_1_s 0.01
M24_1 N005_1_M24_1_d C_1_M24_1_g N009_1_M24_1_s 0 nmos l=1u w=2u
R_C_2_M25_1_d C_2 C_2_M25_1_d 0.01
R_N005_1_M25_1_g N005_1 N005_1_M25_1_g 0.01
M25_1 C_2_M25_1_d N005_1_M25_1_g 0 0 nmos l=1u w=1u
R_N002_1_M26_1_d N002_1 N002_1_M26_1_d 0.01
R_N005_1_M26_1_g N005_1 N005_1_M26_1_g 0.01
R_N007_1_M26_1_s N007_1 N007_1_M26_1_s 0.01
R_VDD_M26_1_b VDD VDD_M26_1_b 0.01
M26_1 N002_1_M26_1_d N005_1_M26_1_g N007_1_M26_1_s VDD_M26_1_b pmos l=1u w=4u
R_VDD_M27_1_d VDD VDD_M27_1_d 0.01
R_N007_1_M27_1_g N007_1 N007_1_M27_1_g 0.01
R_S_1_M27_1_s S_1 S_1_M27_1_s 0.01
R_VDD_M27_1_b VDD VDD_M27_1_b 0.01
M27_1 VDD_M27_1_d N007_1_M27_1_g S_1_M27_1_s VDD_M27_1_b pmos l=1u w=2u
R_S_1_M28_1_d S_1 S_1_M28_1_d 0.01
R_N007_1_M28_1_g N007_1 N007_1_M28_1_g 0.01
M28_1 S_1_M28_1_d N007_1_M28_1_g 0 0 nmos l=1u w=1u
C_S_1 S_1 0 1f
* --- Bit 2 ---
R_VDD_M1_2_d VDD VDD_M1_2_d 0.01
R_A_2_M1_2_g A_2 A_2_M1_2_g 0.01
R_N003_2_M1_2_s N003_2 N003_2_M1_2_s 0.01
R_VDD_M1_2_b VDD VDD_M1_2_b 0.01
M1_2 VDD_M1_2_d A_2_M1_2_g N003_2_M1_2_s VDD_M1_2_b pmos l=1u w=4u
R_N003_2_M2_2_d N003_2 N003_2_M2_2_d 0.01
R_B_2_M2_2_g B_2 B_2_M2_2_g 0.01
R_N005_2_M2_2_s N005_2 N005_2_M2_2_s 0.01
R_VDD_M2_2_b VDD VDD_M2_2_b 0.01
M2_2 N003_2_M2_2_d B_2_M2_2_g N005_2_M2_2_s VDD_M2_2_b pmos l=1u w=4u
R_VDD_M3_2_d VDD VDD_M3_2_d 0.01
R_A_2_M3_2_g A_2 A_2_M3_2_g 0.01
R_N001_2_M3_2_s N001_2 N001_2_M3_2_s 0.01
R_VDD_M3_2_b VDD VDD_M3_2_b 0.01
M3_2 VDD_M3_2_d A_2_M3_2_g N001_2_M3_2_s VDD_M3_2_b pmos l=1u w=4u
R_N001_2_M4_2_d N001_2 N001_2_M4_2_d 0.01
R_C_2_M4_2_g C_2 C_2_M4_2_g 0.01
R_N005_2_M4_2_s N005_2 N005_2_M4_2_s 0.01
R_VDD_M4_2_b VDD VDD_M4_2_b 0.01
M4_2 N001_2_M4_2_d C_2_M4_2_g N005_2_M4_2_s VDD_M4_2_b pmos l=1u w=4u
R_VDD_M5_2_d VDD VDD_M5_2_d 0.01
R_B_2_M5_2_g B_2 B_2_M5_2_g 0.01
R_N001_2_M5_2_s N001_2 N001_2_M5_2_s 0.01
R_VDD_M5_2_b VDD VDD_M5_2_b 0.01
M5_2 VDD_M5_2_d B_2_M5_2_g N001_2_M5_2_s VDD_M5_2_b pmos l=1u w=4u
R_VDD_M6_2_d VDD VDD_M6_2_d 0.01
R_N005_2_M6_2_g N005_2 N005_2_M6_2_g 0.01
R_C_3_M6_2_s C_3 C_3_M6_2_s 0.01
R_VDD_M6_2_b VDD VDD_M6_2_b 0.01
M6_2 VDD_M6_2_d N005_2_M6_2_g C_3_M6_2_s VDD_M6_2_b pmos l=1u w=2u
R_VDD_M7_2_d VDD VDD_M7_2_d 0.01
R_A_2_M7_2_g A_2 A_2_M7_2_g 0.01
R_N002_2_M7_2_s N002_2 N002_2_M7_2_s 0.01
R_VDD_M7_2_b VDD VDD_M7_2_b 0.01
M7_2 VDD_M7_2_d A_2_M7_2_g N002_2_M7_2_s VDD_M7_2_b pmos l=1u w=4u
R_VDD_M8_2_d VDD VDD_M8_2_d 0.01
R_B_2_M8_2_g B_2 B_2_M8_2_g 0.01
R_N002_2_M8_2_s N002_2 N002_2_M8_2_s 0.01
R_VDD_M8_2_b VDD VDD_M8_2_b 0.01
M8_2 VDD_M8_2_d B_2_M8_2_g N002_2_M8_2_s VDD_M8_2_b pmos l=1u w=4u
R_VDD_M9_2_d VDD VDD_M9_2_d 0.01
R_C_2_M9_2_g C_2 C_2_M9_2_g 0.01
R_N002_2_M9_2_s N002_2 N002_2_M9_2_s 0.01
R_VDD_M9_2_b VDD VDD_M9_2_b 0.01
M9_2 VDD_M9_2_d C_2_M9_2_g N002_2_M9_2_s VDD_M9_2_b pmos l=1u w=4u
R_VDD_M10_2_d VDD VDD_M10_2_d 0.01
R_A_2_M10_2_g A_2 A_2_M10_2_g 0.01
R_N004_2_M10_2_s N004_2 N004_2_M10_2_s 0.01
R_VDD_M10_2_b VDD VDD_M10_2_b 0.01
M10_2 VDD_M10_2_d A_2_M10_2_g N004_2_M10_2_s VDD_M10_2_b pmos l=1u w=8u
R_N004_2_M11_2_d N004_2 N004_2_M11_2_d 0.01
R_B_2_M11_2_g B_2 B_2_M11_2_g 0.01
R_N006_2_M11_2_s N006_2 N006_2_M11_2_s 0.01
R_VDD_M11_2_b VDD VDD_M11_2_b 0.01
M11_2 N004_2_M11_2_d B_2_M11_2_g N006_2_M11_2_s VDD_M11_2_b pmos l=1u w=8u
R_N006_2_M12_2_d N006_2 N006_2_M12_2_d 0.01
R_C_2_M12_2_g C_2 C_2_M12_2_g 0.01
R_N007_2_M12_2_s N007_2 N007_2_M12_2_s 0.01
R_VDD_M12_2_b VDD VDD_M12_2_b 0.01
M12_2 N006_2_M12_2_d C_2_M12_2_g N007_2_M12_2_s VDD_M12_2_b pmos l=1u w=8u
R_N007_2_M13_2_d N007_2 N007_2_M13_2_d 0.01
R_C_2_M13_2_g C_2 C_2_M13_2_g 0.01
R_N008_2_M13_2_s N008_2 N008_2_M13_2_s 0.01
M13_2 N007_2_M13_2_d C_2_M13_2_g N008_2_M13_2_s 0 nmos l=1u w=8u
R_N008_2_M14_2_d N008_2 N008_2_M14_2_d 0.01
R_B_2_M14_2_g B_2 B_2_M14_2_g 0.01
R_N012_2_M14_2_s N012_2 N012_2_M14_2_s 0.01
M14_2 N008_2_M14_2_d B_2_M14_2_g N012_2_M14_2_s 0 nmos l=1u w=8u
R_N012_2_M15_2_d N012_2 N012_2_M15_2_d 0.01
R_A_2_M15_2_g A_2 A_2_M15_2_g 0.01
M15_2 N012_2_M15_2_d A_2_M15_2_g 0 0 nmos l=1u w=8u
R_N010_2_M16_2_d N010_2 N010_2_M16_2_d 0.01
R_C_2_M16_2_g C_2 C_2_M16_2_g 0.01
M16_2 N010_2_M16_2_d C_2_M16_2_g 0 0 nmos l=1u w=2u
R_N010_2_M17_2_d N010_2 N010_2_M17_2_d 0.01
R_B_2_M17_2_g B_2 B_2_M17_2_g 0.01
M17_2 N010_2_M17_2_d B_2_M17_2_g 0 0 nmos l=1u w=2u
R_N010_2_M18_2_d N010_2 N010_2_M18_2_d 0.01
R_A_2_M18_2_g A_2 A_2_M18_2_g 0.01
M18_2 N010_2_M18_2_d A_2_M18_2_g 0 0 nmos l=1u w=2u
R_N007_2_M19_2_d N007_2 N007_2_M19_2_d 0.01
R_N005_2_M19_2_g N005_2 N005_2_M19_2_g 0.01
R_N010_2_M19_2_s N010_2 N010_2_M19_2_s 0.01
M19_2 N007_2_M19_2_d N005_2_M19_2_g N010_2_M19_2_s 0 nmos l=1u w=2u
R_N009_2_M20_2_d N009_2 N009_2_M20_2_d 0.01
R_B_2_M20_2_g B_2 B_2_M20_2_g 0.01
M20_2 N009_2_M20_2_d B_2_M20_2_g 0 0 nmos l=1u w=2u
R_N009_2_M21_2_d N009_2 N009_2_M21_2_d 0.01
R_A_2_M21_2_g A_2 A_2_M21_2_g 0.01
M21_2 N009_2_M21_2_d A_2_M21_2_g 0 0 nmos l=1u w=2u
R_N011_2_M22_2_d N011_2 N011_2_M22_2_d 0.01
R_A_2_M22_2_g A_2 A_2_M22_2_g 0.01
M22_2 N011_2_M22_2_d A_2_M22_2_g 0 0 nmos l=1u w=2u
R_N005_2_M23_2_d N005_2 N005_2_M23_2_d 0.01
R_B_2_M23_2_g B_2 B_2_M23_2_g 0.01
R_N011_2_M23_2_s N011_2 N011_2_M23_2_s 0.01
M23_2 N005_2_M23_2_d B_2_M23_2_g N011_2_M23_2_s 0 nmos l=1u w=2u
R_N005_2_M24_2_d N005_2 N005_2_M24_2_d 0.01
R_C_2_M24_2_g C_2 C_2_M24_2_g 0.01
R_N009_2_M24_2_s N009_2 N009_2_M24_2_s 0.01
M24_2 N005_2_M24_2_d C_2_M24_2_g N009_2_M24_2_s 0 nmos l=1u w=2u
R_C_3_M25_2_d C_3 C_3_M25_2_d 0.01
R_N005_2_M25_2_g N005_2 N005_2_M25_2_g 0.01
M25_2 C_3_M25_2_d N005_2_M25_2_g 0 0 nmos l=1u w=1u
R_N002_2_M26_2_d N002_2 N002_2_M26_2_d 0.01
R_N005_2_M26_2_g N005_2 N005_2_M26_2_g 0.01
R_N007_2_M26_2_s N007_2 N007_2_M26_2_s 0.01
R_VDD_M26_2_b VDD VDD_M26_2_b 0.01
M26_2 N002_2_M26_2_d N005_2_M26_2_g N007_2_M26_2_s VDD_M26_2_b pmos l=1u w=4u
R_VDD_M27_2_d VDD VDD_M27_2_d 0.01
R_N007_2_M27_2_g N007_2 N007_2_M27_2_g 0.01
R_S_2_M27_2_s S_2 S_2_M27_2_s 0.01
R_VDD_M27_2_b VDD VDD_M27_2_b 0.01
M27_2 VDD_M27_2_d N007_2_M27_2_g S_2_M27_2_s VDD_M27_2_b pmos l=1u w=2u
R_S_2_M28_2_d S_2 S_2_M28_2_d 0.01
R_N007_2_M28_2_g N007_2 N007_2_M28_2_g 0.01
M28_2 S_2_M28_2_d N007_2_M28_2_g 0 0 nmos l=1u w=1u
C_S_2 S_2 0 1f
* --- Bit 3 ---
R_VDD_M1_3_d VDD VDD_M1_3_d 0.01
R_A_3_M1_3_g A_3 A_3_M1_3_g 0.01
R_N003_3_M1_3_s N003_3 N003_3_M1_3_s 0.01
R_VDD_M1_3_b VDD VDD_M1_3_b 0.01
M1_3 VDD_M1_3_d A_3_M1_3_g N003_3_M1_3_s VDD_M1_3_b pmos l=1u w=4u
R_N003_3_M2_3_d N003_3 N003_3_M2_3_d 0.01
R_B_3_M2_3_g B_3 B_3_M2_3_g 0.01
R_N005_3_M2_3_s N005_3 N005_3_M2_3_s 0.01
R_VDD_M2_3_b VDD VDD_M2_3_b 0.01
M2_3 N003_3_M2_3_d B_3_M2_3_g N005_3_M2_3_s VDD_M2_3_b pmos l=1u w=4u
R_VDD_M3_3_d VDD VDD_M3_3_d 0.01
R_A_3_M3_3_g A_3 A_3_M3_3_g 0.01
R_N001_3_M3_3_s N001_3 N001_3_M3_3_s 0.01
R_VDD_M3_3_b VDD VDD_M3_3_b 0.01
M3_3 VDD_M3_3_d A_3_M3_3_g N001_3_M3_3_s VDD_M3_3_b pmos l=1u w=4u
R_N001_3_M4_3_d N001_3 N001_3_M4_3_d 0.01
R_C_3_M4_3_g C_3 C_3_M4_3_g 0.01
R_N005_3_M4_3_s N005_3 N005_3_M4_3_s 0.01
R_VDD_M4_3_b VDD VDD_M4_3_b 0.01
M4_3 N001_3_M4_3_d C_3_M4_3_g N005_3_M4_3_s VDD_M4_3_b pmos l=1u w=4u
R_VDD_M5_3_d VDD VDD_M5_3_d 0.01
R_B_3_M5_3_g B_3 B_3_M5_3_g 0.01
R_N001_3_M5_3_s N001_3 N001_3_M5_3_s 0.01
R_VDD_M5_3_b VDD VDD_M5_3_b 0.01
M5_3 VDD_M5_3_d B_3_M5_3_g N001_3_M5_3_s VDD_M5_3_b pmos l=1u w=4u
R_VDD_M6_3_d VDD VDD_M6_3_d 0.01
R_N005_3_M6_3_g N005_3 N005_3_M6_3_g 0.01
R_C_4_M6_3_s C_4 C_4_M6_3_s 0.01
R_VDD_M6_3_b VDD VDD_M6_3_b 0.01
M6_3 VDD_M6_3_d N005_3_M6_3_g C_4_M6_3_s VDD_M6_3_b pmos l=1u w=2u
R_VDD_M7_3_d VDD VDD_M7_3_d 0.01
R_A_3_M7_3_g A_3 A_3_M7_3_g 0.01
R_N002_3_M7_3_s N002_3 N002_3_M7_3_s 0.01
R_VDD_M7_3_b VDD VDD_M7_3_b 0.01
M7_3 VDD_M7_3_d A_3_M7_3_g N002_3_M7_3_s VDD_M7_3_b pmos l=1u w=4u
R_VDD_M8_3_d VDD VDD_M8_3_d 0.01
R_B_3_M8_3_g B_3 B_3_M8_3_g 0.01
R_N002_3_M8_3_s N002_3 N002_3_M8_3_s 0.01
R_VDD_M8_3_b VDD VDD_M8_3_b 0.01
M8_3 VDD_M8_3_d B_3_M8_3_g N002_3_M8_3_s VDD_M8_3_b pmos l=1u w=4u
R_VDD_M9_3_d VDD VDD_M9_3_d 0.01
R_C_3_M9_3_g C_3 C_3_M9_3_g 0.01
R_N002_3_M9_3_s N002_3 N002_3_M9_3_s 0.01
R_VDD_M9_3_b VDD VDD_M9_3_b 0.01
M9_3 VDD_M9_3_d C_3_M9_3_g N002_3_M9_3_s VDD_M9_3_b pmos l=1u w=4u
R_VDD_M10_3_d VDD VDD_M10_3_d 0.01
R_A_3_M10_3_g A_3 A_3_M10_3_g 0.01
R_N004_3_M10_3_s N004_3 N004_3_M10_3_s 0.01
R_VDD_M10_3_b VDD VDD_M10_3_b 0.01
M10_3 VDD_M10_3_d A_3_M10_3_g N004_3_M10_3_s VDD_M10_3_b pmos l=1u w=8u
R_N004_3_M11_3_d N004_3 N004_3_M11_3_d 0.01
R_B_3_M11_3_g B_3 B_3_M11_3_g 0.01
R_N006_3_M11_3_s N006_3 N006_3_M11_3_s 0.01
R_VDD_M11_3_b VDD VDD_M11_3_b 0.01
M11_3 N004_3_M11_3_d B_3_M11_3_g N006_3_M11_3_s VDD_M11_3_b pmos l=1u w=8u
R_N006_3_M12_3_d N006_3 N006_3_M12_3_d 0.01
R_C_3_M12_3_g C_3 C_3_M12_3_g 0.01
R_N007_3_M12_3_s N007_3 N007_3_M12_3_s 0.01
R_VDD_M12_3_b VDD VDD_M12_3_b 0.01
M12_3 N006_3_M12_3_d C_3_M12_3_g N007_3_M12_3_s VDD_M12_3_b pmos l=1u w=8u
R_N007_3_M13_3_d N007_3 N007_3_M13_3_d 0.01
R_C_3_M13_3_g C_3 C_3_M13_3_g 0.01
R_N008_3_M13_3_s N008_3 N008_3_M13_3_s 0.01
M13_3 N007_3_M13_3_d C_3_M13_3_g N008_3_M13_3_s 0 nmos l=1u w=8u
R_N008_3_M14_3_d N008_3 N008_3_M14_3_d 0.01
R_B_3_M14_3_g B_3 B_3_M14_3_g 0.01
R_N012_3_M14_3_s N012_3 N012_3_M14_3_s 0.01
M14_3 N008_3_M14_3_d B_3_M14_3_g N012_3_M14_3_s 0 nmos l=1u w=8u
R_N012_3_M15_3_d N012_3 N012_3_M15_3_d 0.01
R_A_3_M15_3_g A_3 A_3_M15_3_g 0.01
M15_3 N012_3_M15_3_d A_3_M15_3_g 0 0 nmos l=1u w=8u
R_N010_3_M16_3_d N010_3 N010_3_M16_3_d 0.01
R_C_3_M16_3_g C_3 C_3_M16_3_g 0.01
M16_3 N010_3_M16_3_d C_3_M16_3_g 0 0 nmos l=1u w=2u
R_N010_3_M17_3_d N010_3 N010_3_M17_3_d 0.01
R_B_3_M17_3_g B_3 B_3_M17_3_g 0.01
M17_3 N010_3_M17_3_d B_3_M17_3_g 0 0 nmos l=1u w=2u
R_N010_3_M18_3_d N010_3 N010_3_M18_3_d 0.01
R_A_3_M18_3_g A_3 A_3_M18_3_g 0.01
M18_3 N010_3_M18_3_d A_3_M18_3_g 0 0 nmos l=1u w=2u
R_N007_3_M19_3_d N007_3 N007_3_M19_3_d 0.01
R_N005_3_M19_3_g N005_3 N005_3_M19_3_g 0.01
R_N010_3_M19_3_s N010_3 N010_3_M19_3_s 0.01
M19_3 N007_3_M19_3_d N005_3_M19_3_g N010_3_M19_3_s 0 nmos l=1u w=2u
R_N009_3_M20_3_d N009_3 N009_3_M20_3_d 0.01
R_B_3_M20_3_g B_3 B_3_M20_3_g 0.01
M20_3 N009_3_M20_3_d B_3_M20_3_g 0 0 nmos l=1u w=2u
R_N009_3_M21_3_d N009_3 N009_3_M21_3_d 0.01
R_A_3_M21_3_g A_3 A_3_M21_3_g 0.01
M21_3 N009_3_M21_3_d A_3_M21_3_g 0 0 nmos l=1u w=2u
R_N011_3_M22_3_d N011_3 N011_3_M22_3_d 0.01
R_A_3_M22_3_g A_3 A_3_M22_3_g 0.01
M22_3 N011_3_M22_3_d A_3_M22_3_g 0 0 nmos l=1u w=2u
R_N005_3_M23_3_d N005_3 N005_3_M23_3_d 0.01
R_B_3_M23_3_g B_3 B_3_M23_3_g 0.01
R_N011_3_M23_3_s N011_3 N011_3_M23_3_s 0.01
M23_3 N005_3_M23_3_d B_3_M23_3_g N011_3_M23_3_s 0 nmos l=1u w=2u
R_N005_3_M24_3_d N005_3 N005_3_M24_3_d 0.01
R_C_3_M24_3_g C_3 C_3_M24_3_g 0.01
R_N009_3_M24_3_s N009_3 N009_3_M24_3_s 0.01
M24_3 N005_3_M24_3_d C_3_M24_3_g N009_3_M24_3_s 0 nmos l=1u w=2u
R_C_4_M25_3_d C_4 C_4_M25_3_d 0.01
R_N005_3_M25_3_g N005_3 N005_3_M25_3_g 0.01
M25_3 C_4_M25_3_d N005_3_M25_3_g 0 0 nmos l=1u w=1u
R_N002_3_M26_3_d N002_3 N002_3_M26_3_d 0.01
R_N005_3_M26_3_g N005_3 N005_3_M26_3_g 0.01
R_N007_3_M26_3_s N007_3 N007_3_M26_3_s 0.01
R_VDD_M26_3_b VDD VDD_M26_3_b 0.01
M26_3 N002_3_M26_3_d N005_3_M26_3_g N007_3_M26_3_s VDD_M26_3_b pmos l=1u w=4u
R_VDD_M27_3_d VDD VDD_M27_3_d 0.01
R_N007_3_M27_3_g N007_3 N007_3_M27_3_g 0.01
R_S_3_M27_3_s S_3 S_3_M27_3_s 0.01
R_VDD_M27_3_b VDD VDD_M27_3_b 0.01
M27_3 VDD_M27_3_d N007_3_M27_3_g S_3_M27_3_s VDD_M27_3_b pmos l=1u w=2u
R_S_3_M28_3_d S_3 S_3_M28_3_d 0.01
R_N007_3_M28_3_g N007_3 N007_3_M28_3_g 0.01
M28_3 S_3_M28_3_d N007_3_M28_3_g 0 0 nmos l=1u w=1u
C_S_3 S_3 0 1f
* --- Bit 4 ---
R_VDD_M1_4_d VDD VDD_M1_4_d 0.01
R_A_4_M1_4_g A_4 A_4_M1_4_g 0.01
R_N003_4_M1_4_s N003_4 N003_4_M1_4_s 0.01
R_VDD_M1_4_b VDD VDD_M1_4_b 0.01
M1_4 VDD_M1_4_d A_4_M1_4_g N003_4_M1_4_s VDD_M1_4_b pmos l=1u w=4u
R_N003_4_M2_4_d N003_4 N003_4_M2_4_d 0.01
R_B_4_M2_4_g B_4 B_4_M2_4_g 0.01
R_N005_4_M2_4_s N005_4 N005_4_M2_4_s 0.01
R_VDD_M2_4_b VDD VDD_M2_4_b 0.01
M2_4 N003_4_M2_4_d B_4_M2_4_g N005_4_M2_4_s VDD_M2_4_b pmos l=1u w=4u
R_VDD_M3_4_d VDD VDD_M3_4_d 0.01
R_A_4_M3_4_g A_4 A_4_M3_4_g 0.01
R_N001_4_M3_4_s N001_4 N001_4_M3_4_s 0.01
R_VDD_M3_4_b VDD VDD_M3_4_b 0.01
M3_4 VDD_M3_4_d A_4_M3_4_g N001_4_M3_4_s VDD_M3_4_b pmos l=1u w=4u
R_N001_4_M4_4_d N001_4 N001_4_M4_4_d 0.01
R_C_4_M4_4_g C_4 C_4_M4_4_g 0.01
R_N005_4_M4_4_s N005_4 N005_4_M4_4_s 0.01
R_VDD_M4_4_b VDD VDD_M4_4_b 0.01
M4_4 N001_4_M4_4_d C_4_M4_4_g N005_4_M4_4_s VDD_M4_4_b pmos l=1u w=4u
R_VDD_M5_4_d VDD VDD_M5_4_d 0.01
R_B_4_M5_4_g B_4 B_4_M5_4_g 0.01
R_N001_4_M5_4_s N001_4 N001_4_M5_4_s 0.01
R_VDD_M5_4_b VDD VDD_M5_4_b 0.01
M5_4 VDD_M5_4_d B_4_M5_4_g N001_4_M5_4_s VDD_M5_4_b pmos l=1u w=4u
R_VDD_M6_4_d VDD VDD_M6_4_d 0.01
R_N005_4_M6_4_g N005_4 N005_4_M6_4_g 0.01
R_C_5_M6_4_s C_5 C_5_M6_4_s 0.01
R_VDD_M6_4_b VDD VDD_M6_4_b 0.01
M6_4 VDD_M6_4_d N005_4_M6_4_g C_5_M6_4_s VDD_M6_4_b pmos l=1u w=2u
R_VDD_M7_4_d VDD VDD_M7_4_d 0.01
R_A_4_M7_4_g A_4 A_4_M7_4_g 0.01
R_N002_4_M7_4_s N002_4 N002_4_M7_4_s 0.01
R_VDD_M7_4_b VDD VDD_M7_4_b 0.01
M7_4 VDD_M7_4_d A_4_M7_4_g N002_4_M7_4_s VDD_M7_4_b pmos l=1u w=4u
R_VDD_M8_4_d VDD VDD_M8_4_d 0.01
R_B_4_M8_4_g B_4 B_4_M8_4_g 0.01
R_N002_4_M8_4_s N002_4 N002_4_M8_4_s 0.01
R_VDD_M8_4_b VDD VDD_M8_4_b 0.01
M8_4 VDD_M8_4_d B_4_M8_4_g N002_4_M8_4_s VDD_M8_4_b pmos l=1u w=4u
R_VDD_M9_4_d VDD VDD_M9_4_d 0.01
R_C_4_M9_4_g C_4 C_4_M9_4_g 0.01
R_N002_4_M9_4_s N002_4 N002_4_M9_4_s 0.01
R_VDD_M9_4_b VDD VDD_M9_4_b 0.01
M9_4 VDD_M9_4_d C_4_M9_4_g N002_4_M9_4_s VDD_M9_4_b pmos l=1u w=4u
R_VDD_M10_4_d VDD VDD_M10_4_d 0.01
R_A_4_M10_4_g A_4 A_4_M10_4_g 0.01
R_N004_4_M10_4_s N004_4 N004_4_M10_4_s 0.01
R_VDD_M10_4_b VDD VDD_M10_4_b 0.01
M10_4 VDD_M10_4_d A_4_M10_4_g N004_4_M10_4_s VDD_M10_4_b pmos l=1u w=8u
R_N004_4_M11_4_d N004_4 N004_4_M11_4_d 0.01
R_B_4_M11_4_g B_4 B_4_M11_4_g 0.01
R_N006_4_M11_4_s N006_4 N006_4_M11_4_s 0.01
R_VDD_M11_4_b VDD VDD_M11_4_b 0.01
M11_4 N004_4_M11_4_d B_4_M11_4_g N006_4_M11_4_s VDD_M11_4_b pmos l=1u w=8u
R_N006_4_M12_4_d N006_4 N006_4_M12_4_d 0.01
R_C_4_M12_4_g C_4 C_4_M12_4_g 0.01
R_N007_4_M12_4_s N007_4 N007_4_M12_4_s 0.01
R_VDD_M12_4_b VDD VDD_M12_4_b 0.01
M12_4 N006_4_M12_4_d C_4_M12_4_g N007_4_M12_4_s VDD_M12_4_b pmos l=1u w=8u
R_N007_4_M13_4_d N007_4 N007_4_M13_4_d 0.01
R_C_4_M13_4_g C_4 C_4_M13_4_g 0.01
R_N008_4_M13_4_s N008_4 N008_4_M13_4_s 0.01
M13_4 N007_4_M13_4_d C_4_M13_4_g N008_4_M13_4_s 0 nmos l=1u w=8u
R_N008_4_M14_4_d N008_4 N008_4_M14_4_d 0.01
R_B_4_M14_4_g B_4 B_4_M14_4_g 0.01
R_N012_4_M14_4_s N012_4 N012_4_M14_4_s 0.01
M14_4 N008_4_M14_4_d B_4_M14_4_g N012_4_M14_4_s 0 nmos l=1u w=8u
R_N012_4_M15_4_d N012_4 N012_4_M15_4_d 0.01
R_A_4_M15_4_g A_4 A_4_M15_4_g 0.01
M15_4 N012_4_M15_4_d A_4_M15_4_g 0 0 nmos l=1u w=8u
R_N010_4_M16_4_d N010_4 N010_4_M16_4_d 0.01
R_C_4_M16_4_g C_4 C_4_M16_4_g 0.01
M16_4 N010_4_M16_4_d C_4_M16_4_g 0 0 nmos l=1u w=2u
R_N010_4_M17_4_d N010_4 N010_4_M17_4_d 0.01
R_B_4_M17_4_g B_4 B_4_M17_4_g 0.01
M17_4 N010_4_M17_4_d B_4_M17_4_g 0 0 nmos l=1u w=2u
R_N010_4_M18_4_d N010_4 N010_4_M18_4_d 0.01
R_A_4_M18_4_g A_4 A_4_M18_4_g 0.01
M18_4 N010_4_M18_4_d A_4_M18_4_g 0 0 nmos l=1u w=2u
R_N007_4_M19_4_d N007_4 N007_4_M19_4_d 0.01
R_N005_4_M19_4_g N005_4 N005_4_M19_4_g 0.01
R_N010_4_M19_4_s N010_4 N010_4_M19_4_s 0.01
M19_4 N007_4_M19_4_d N005_4_M19_4_g N010_4_M19_4_s 0 nmos l=1u w=2u
R_N009_4_M20_4_d N009_4 N009_4_M20_4_d 0.01
R_B_4_M20_4_g B_4 B_4_M20_4_g 0.01
M20_4 N009_4_M20_4_d B_4_M20_4_g 0 0 nmos l=1u w=2u
R_N009_4_M21_4_d N009_4 N009_4_M21_4_d 0.01
R_A_4_M21_4_g A_4 A_4_M21_4_g 0.01
M21_4 N009_4_M21_4_d A_4_M21_4_g 0 0 nmos l=1u w=2u
R_N011_4_M22_4_d N011_4 N011_4_M22_4_d 0.01
R_A_4_M22_4_g A_4 A_4_M22_4_g 0.01
M22_4 N011_4_M22_4_d A_4_M22_4_g 0 0 nmos l=1u w=2u
R_N005_4_M23_4_d N005_4 N005_4_M23_4_d 0.01
R_B_4_M23_4_g B_4 B_4_M23_4_g 0.01
R_N011_4_M23_4_s N011_4 N011_4_M23_4_s 0.01
M23_4 N005_4_M23_4_d B_4_M23_4_g N011_4_M23_4_s 0 nmos l=1u w=2u
R_N005_4_M24_4_d N005_4 N005_4_M24_4_d 0.01
R_C_4_M24_4_g C_4 C_4_M24_4_g 0.01
R_N009_4_M24_4_s N009_4 N009_4_M24_4_s 0.01
M24_4 N005_4_M24_4_d C_4_M24_4_g N009_4_M24_4_s 0 nmos l=1u w=2u
R_C_5_M25_4_d C_5 C_5_M25_4_d 0.01
R_N005_4_M25_4_g N005_4 N005_4_M25_4_g 0.01
M25_4 C_5_M25_4_d N005_4_M25_4_g 0 0 nmos l=1u w=1u
R_N002_4_M26_4_d N002_4 N002_4_M26_4_d 0.01
R_N005_4_M26_4_g N005_4 N005_4_M26_4_g 0.01
R_N007_4_M26_4_s N007_4 N007_4_M26_4_s 0.01
R_VDD_M26_4_b VDD VDD_M26_4_b 0.01
M26_4 N002_4_M26_4_d N005_4_M26_4_g N007_4_M26_4_s VDD_M26_4_b pmos l=1u w=4u
R_VDD_M27_4_d VDD VDD_M27_4_d 0.01
R_N007_4_M27_4_g N007_4 N007_4_M27_4_g 0.01
R_S_4_M27_4_s S_4 S_4_M27_4_s 0.01
R_VDD_M27_4_b VDD VDD_M27_4_b 0.01
M27_4 VDD_M27_4_d N007_4_M27_4_g S_4_M27_4_s VDD_M27_4_b pmos l=1u w=2u
R_S_4_M28_4_d S_4 S_4_M28_4_d 0.01
R_N007_4_M28_4_g N007_4 N007_4_M28_4_g 0.01
M28_4 S_4_M28_4_d N007_4_M28_4_g 0 0 nmos l=1u w=1u
C_S_4 S_4 0 1f
* --- Bit 5 ---
R_VDD_M1_5_d VDD VDD_M1_5_d 0.01
R_A_5_M1_5_g A_5 A_5_M1_5_g 0.01
R_N003_5_M1_5_s N003_5 N003_5_M1_5_s 0.01
R_VDD_M1_5_b VDD VDD_M1_5_b 0.01
M1_5 VDD_M1_5_d A_5_M1_5_g N003_5_M1_5_s VDD_M1_5_b pmos l=1u w=4u
R_N003_5_M2_5_d N003_5 N003_5_M2_5_d 0.01
R_B_5_M2_5_g B_5 B_5_M2_5_g 0.01
R_N005_5_M2_5_s N005_5 N005_5_M2_5_s 0.01
R_VDD_M2_5_b VDD VDD_M2_5_b 0.01
M2_5 N003_5_M2_5_d B_5_M2_5_g N005_5_M2_5_s VDD_M2_5_b pmos l=1u w=4u
R_VDD_M3_5_d VDD VDD_M3_5_d 0.01
R_A_5_M3_5_g A_5 A_5_M3_5_g 0.01
R_N001_5_M3_5_s N001_5 N001_5_M3_5_s 0.01
R_VDD_M3_5_b VDD VDD_M3_5_b 0.01
M3_5 VDD_M3_5_d A_5_M3_5_g N001_5_M3_5_s VDD_M3_5_b pmos l=1u w=4u
R_N001_5_M4_5_d N001_5 N001_5_M4_5_d 0.01
R_C_5_M4_5_g C_5 C_5_M4_5_g 0.01
R_N005_5_M4_5_s N005_5 N005_5_M4_5_s 0.01
R_VDD_M4_5_b VDD VDD_M4_5_b 0.01
M4_5 N001_5_M4_5_d C_5_M4_5_g N005_5_M4_5_s VDD_M4_5_b pmos l=1u w=4u
R_VDD_M5_5_d VDD VDD_M5_5_d 0.01
R_B_5_M5_5_g B_5 B_5_M5_5_g 0.01
R_N001_5_M5_5_s N001_5 N001_5_M5_5_s 0.01
R_VDD_M5_5_b VDD VDD_M5_5_b 0.01
M5_5 VDD_M5_5_d B_5_M5_5_g N001_5_M5_5_s VDD_M5_5_b pmos l=1u w=4u
R_VDD_M6_5_d VDD VDD_M6_5_d 0.01
R_N005_5_M6_5_g N005_5 N005_5_M6_5_g 0.01
R_C_6_M6_5_s C_6 C_6_M6_5_s 0.01
R_VDD_M6_5_b VDD VDD_M6_5_b 0.01
M6_5 VDD_M6_5_d N005_5_M6_5_g C_6_M6_5_s VDD_M6_5_b pmos l=1u w=2u
R_VDD_M7_5_d VDD VDD_M7_5_d 0.01
R_A_5_M7_5_g A_5 A_5_M7_5_g 0.01
R_N002_5_M7_5_s N002_5 N002_5_M7_5_s 0.01
R_VDD_M7_5_b VDD VDD_M7_5_b 0.01
M7_5 VDD_M7_5_d A_5_M7_5_g N002_5_M7_5_s VDD_M7_5_b pmos l=1u w=4u
R_VDD_M8_5_d VDD VDD_M8_5_d 0.01
R_B_5_M8_5_g B_5 B_5_M8_5_g 0.01
R_N002_5_M8_5_s N002_5 N002_5_M8_5_s 0.01
R_VDD_M8_5_b VDD VDD_M8_5_b 0.01
M8_5 VDD_M8_5_d B_5_M8_5_g N002_5_M8_5_s VDD_M8_5_b pmos l=1u w=4u
R_VDD_M9_5_d VDD VDD_M9_5_d 0.01
R_C_5_M9_5_g C_5 C_5_M9_5_g 0.01
R_N002_5_M9_5_s N002_5 N002_5_M9_5_s 0.01
R_VDD_M9_5_b VDD VDD_M9_5_b 0.01
M9_5 VDD_M9_5_d C_5_M9_5_g N002_5_M9_5_s VDD_M9_5_b pmos l=1u w=4u
R_VDD_M10_5_d VDD VDD_M10_5_d 0.01
R_A_5_M10_5_g A_5 A_5_M10_5_g 0.01
R_N004_5_M10_5_s N004_5 N004_5_M10_5_s 0.01
R_VDD_M10_5_b VDD VDD_M10_5_b 0.01
M10_5 VDD_M10_5_d A_5_M10_5_g N004_5_M10_5_s VDD_M10_5_b pmos l=1u w=8u
R_N004_5_M11_5_d N004_5 N004_5_M11_5_d 0.01
R_B_5_M11_5_g B_5 B_5_M11_5_g 0.01
R_N006_5_M11_5_s N006_5 N006_5_M11_5_s 0.01
R_VDD_M11_5_b VDD VDD_M11_5_b 0.01
M11_5 N004_5_M11_5_d B_5_M11_5_g N006_5_M11_5_s VDD_M11_5_b pmos l=1u w=8u
R_N006_5_M12_5_d N006_5 N006_5_M12_5_d 0.01
R_C_5_M12_5_g C_5 C_5_M12_5_g 0.01
R_N007_5_M12_5_s N007_5 N007_5_M12_5_s 0.01
R_VDD_M12_5_b VDD VDD_M12_5_b 0.01
M12_5 N006_5_M12_5_d C_5_M12_5_g N007_5_M12_5_s VDD_M12_5_b pmos l=1u w=8u
R_N007_5_M13_5_d N007_5 N007_5_M13_5_d 0.01
R_C_5_M13_5_g C_5 C_5_M13_5_g 0.01
R_N008_5_M13_5_s N008_5 N008_5_M13_5_s 0.01
M13_5 N007_5_M13_5_d C_5_M13_5_g N008_5_M13_5_s 0 nmos l=1u w=8u
R_N008_5_M14_5_d N008_5 N008_5_M14_5_d 0.01
R_B_5_M14_5_g B_5 B_5_M14_5_g 0.01
R_N012_5_M14_5_s N012_5 N012_5_M14_5_s 0.01
M14_5 N008_5_M14_5_d B_5_M14_5_g N012_5_M14_5_s 0 nmos l=1u w=8u
R_N012_5_M15_5_d N012_5 N012_5_M15_5_d 0.01
R_A_5_M15_5_g A_5 A_5_M15_5_g 0.01
M15_5 N012_5_M15_5_d A_5_M15_5_g 0 0 nmos l=1u w=8u
R_N010_5_M16_5_d N010_5 N010_5_M16_5_d 0.01
R_C_5_M16_5_g C_5 C_5_M16_5_g 0.01
M16_5 N010_5_M16_5_d C_5_M16_5_g 0 0 nmos l=1u w=2u
R_N010_5_M17_5_d N010_5 N010_5_M17_5_d 0.01
R_B_5_M17_5_g B_5 B_5_M17_5_g 0.01
M17_5 N010_5_M17_5_d B_5_M17_5_g 0 0 nmos l=1u w=2u
R_N010_5_M18_5_d N010_5 N010_5_M18_5_d 0.01
R_A_5_M18_5_g A_5 A_5_M18_5_g 0.01
M18_5 N010_5_M18_5_d A_5_M18_5_g 0 0 nmos l=1u w=2u
R_N007_5_M19_5_d N007_5 N007_5_M19_5_d 0.01
R_N005_5_M19_5_g N005_5 N005_5_M19_5_g 0.01