* 500-stage CMOS inverter chain (no subcircuits) using BSIM4 models

* Models
.model nmos nmos (level=14 version=4.8.2)
.model pmos pmos (level=14 version=4.8.2)

* Simulation flags
.options acct
*.options num_threads=32
.sparse
.output Results/inv500.raw

VDD vdd 0 1.0
VIN n0 0 PULSE(0 1.0 0 10p 10p 2n 4n)
Cload n500 0 1f

* Inverters expanded inline: Mp=PMOS pull-up, Mn=NMOS pull-down
Mp1 n1 n0 vdd vdd pmos W=1u L=45n
Mn1 n1 n0 0 0 nmos W=0.5u L=45n
Mp2 n2 n1 vdd vdd pmos W=1u L=45n
Mn2 n2 n1 0 0 nmos W=0.5u L=45n
Mp3 n3 n2 vdd vdd pmos W=1u L=45n
Mn3 n3 n2 0 0 nmos W=0.5u L=45n
Mp4 n4 n3 vdd vdd pmos W=1u L=45n
Mn4 n4 n3 0 0 nmos W=0.5u L=45n
Mp5 n5 n4 vdd vdd pmos W=1u L=45n
Mn5 n5 n4 0 0 nmos W=0.5u L=45n
Mp6 n6 n5 vdd vdd pmos W=1u L=45n
Mn6 n6 n5 0 0 nmos W=0.5u L=45n
Mp7 n7 n6 vdd vdd pmos W=1u L=45n
Mn7 n7 n6 0 0 nmos W=0.5u L=45n
Mp8 n8 n7 vdd vdd pmos W=1u L=45n
Mn8 n8 n7 0 0 nmos W=0.5u L=45n
Mp9 n9 n8 vdd vdd pmos W=1u L=45n
Mn9 n9 n8 0 0 nmos W=0.5u L=45n
Mp10 n10 n9 vdd vdd pmos W=1u L=45n
Mn10 n10 n9 0 0 nmos W=0.5u L=45n
Mp11 n11 n10 vdd vdd pmos W=1u L=45n
Mn11 n11 n10 0 0 nmos W=0.5u L=45n
Mp12 n12 n11 vdd vdd pmos W=1u L=45n
Mn12 n12 n11 0 0 nmos W=0.5u L=45n
Mp13 n13 n12 vdd vdd pmos W=1u L=45n
Mn13 n13 n12 0 0 nmos W=0.5u L=45n
Mp14 n14 n13 vdd vdd pmos W=1u L=45n
Mn14 n14 n13 0 0 nmos W=0.5u L=45n
Mp15 n15 n14 vdd vdd pmos W=1u L=45n
Mn15 n15 n14 0 0 nmos W=0.5u L=45n
Mp16 n16 n15 vdd vdd pmos W=1u L=45n
Mn16 n16 n15 0 0 nmos W=0.5u L=45n
Mp17 n17 n16 vdd vdd pmos W=1u L=45n
Mn17 n17 n16 0 0 nmos W=0.5u L=45n
Mp18 n18 n17 vdd vdd pmos W=1u L=45n
Mn18 n18 n17 0 0 nmos W=0.5u L=45n
Mp19 n19 n18 vdd vdd pmos W=1u L=45n
Mn19 n19 n18 0 0 nmos W=0.5u L=45n
Mp20 n20 n19 vdd vdd pmos W=1u L=45n
Mn20 n20 n19 0 0 nmos W=0.5u L=45n
Mp21 n21 n20 vdd vdd pmos W=1u L=45n
Mn21 n21 n20 0 0 nmos W=0.5u L=45n
Mp22 n22 n21 vdd vdd pmos W=1u L=45n
Mn22 n22 n21 0 0 nmos W=0.5u L=45n
Mp23 n23 n22 vdd vdd pmos W=1u L=45n
Mn23 n23 n22 0 0 nmos W=0.5u L=45n
Mp24 n24 n23 vdd vdd pmos W=1u L=45n
Mn24 n24 n23 0 0 nmos W=0.5u L=45n
Mp25 n25 n24 vdd vdd pmos W=1u L=45n
Mn25 n25 n24 0 0 nmos W=0.5u L=45n
Mp26 n26 n25 vdd vdd pmos W=1u L=45n
Mn26 n26 n25 0 0 nmos W=0.5u L=45n
Mp27 n27 n26 vdd vdd pmos W=1u L=45n
Mn27 n27 n26 0 0 nmos W=0.5u L=45n
Mp28 n28 n27 vdd vdd pmos W=1u L=45n
Mn28 n28 n27 0 0 nmos W=0.5u L=45n
Mp29 n29 n28 vdd vdd pmos W=1u L=45n
Mn29 n29 n28 0 0 nmos W=0.5u L=45n
Mp30 n30 n29 vdd vdd pmos W=1u L=45n
Mn30 n30 n29 0 0 nmos W=0.5u L=45n
Mp31 n31 n30 vdd vdd pmos W=1u L=45n
Mn31 n31 n30 0 0 nmos W=0.5u L=45n
Mp32 n32 n31 vdd vdd pmos W=1u L=45n
Mn32 n32 n31 0 0 nmos W=0.5u L=45n
Mp33 n33 n32 vdd vdd pmos W=1u L=45n
Mn33 n33 n32 0 0 nmos W=0.5u L=45n
Mp34 n34 n33 vdd vdd pmos W=1u L=45n
Mn34 n34 n33 0 0 nmos W=0.5u L=45n
Mp35 n35 n34 vdd vdd pmos W=1u L=45n
Mn35 n35 n34 0 0 nmos W=0.5u L=45n
Mp36 n36 n35 vdd vdd pmos W=1u L=45n
Mn36 n36 n35 0 0 nmos W=0.5u L=45n
Mp37 n37 n36 vdd vdd pmos W=1u L=45n
Mn37 n37 n36 0 0 nmos W=0.5u L=45n
Mp38 n38 n37 vdd vdd pmos W=1u L=45n
Mn38 n38 n37 0 0 nmos W=0.5u L=45n
Mp39 n39 n38 vdd vdd pmos W=1u L=45n
Mn39 n39 n38 0 0 nmos W=0.5u L=45n
Mp40 n40 n39 vdd vdd pmos W=1u L=45n
Mn40 n40 n39 0 0 nmos W=0.5u L=45n
Mp41 n41 n40 vdd vdd pmos W=1u L=45n
Mn41 n41 n40 0 0 nmos W=0.5u L=45n
Mp42 n42 n41 vdd vdd pmos W=1u L=45n
Mn42 n42 n41 0 0 nmos W=0.5u L=45n
Mp43 n43 n42 vdd vdd pmos W=1u L=45n
Mn43 n43 n42 0 0 nmos W=0.5u L=45n
Mp44 n44 n43 vdd vdd pmos W=1u L=45n
Mn44 n44 n43 0 0 nmos W=0.5u L=45n
Mp45 n45 n44 vdd vdd pmos W=1u L=45n
Mn45 n45 n44 0 0 nmos W=0.5u L=45n
Mp46 n46 n45 vdd vdd pmos W=1u L=45n
Mn46 n46 n45 0 0 nmos W=0.5u L=45n
Mp47 n47 n46 vdd vdd pmos W=1u L=45n
Mn47 n47 n46 0 0 nmos W=0.5u L=45n
Mp48 n48 n47 vdd vdd pmos W=1u L=45n
Mn48 n48 n47 0 0 nmos W=0.5u L=45n
Mp49 n49 n48 vdd vdd pmos W=1u L=45n
Mn49 n49 n48 0 0 nmos W=0.5u L=45n
Mp50 n50 n49 vdd vdd pmos W=1u L=45n
Mn50 n50 n49 0 0 nmos W=0.5u L=45n
Mp51 n51 n50 vdd vdd pmos W=1u L=45n
Mn51 n51 n50 0 0 nmos W=0.5u L=45n
Mp52 n52 n51 vdd vdd pmos W=1u L=45n
Mn52 n52 n51 0 0 nmos W=0.5u L=45n
Mp53 n53 n52 vdd vdd pmos W=1u L=45n
Mn53 n53 n52 0 0 nmos W=0.5u L=45n
Mp54 n54 n53 vdd vdd pmos W=1u L=45n
Mn54 n54 n53 0 0 nmos W=0.5u L=45n
Mp55 n55 n54 vdd vdd pmos W=1u L=45n
Mn55 n55 n54 0 0 nmos W=0.5u L=45n
Mp56 n56 n55 vdd vdd pmos W=1u L=45n
Mn56 n56 n55 0 0 nmos W=0.5u L=45n
Mp57 n57 n56 vdd vdd pmos W=1u L=45n
Mn57 n57 n56 0 0 nmos W=0.5u L=45n
Mp58 n58 n57 vdd vdd pmos W=1u L=45n
Mn58 n58 n57 0 0 nmos W=0.5u L=45n
Mp59 n59 n58 vdd vdd pmos W=1u L=45n
Mn59 n59 n58 0 0 nmos W=0.5u L=45n
Mp60 n60 n59 vdd vdd pmos W=1u L=45n
Mn60 n60 n59 0 0 nmos W=0.5u L=45n
Mp61 n61 n60 vdd vdd pmos W=1u L=45n
Mn61 n61 n60 0 0 nmos W=0.5u L=45n
Mp62 n62 n61 vdd vdd pmos W=1u L=45n
Mn62 n62 n61 0 0 nmos W=0.5u L=45n
Mp63 n63 n62 vdd vdd pmos W=1u L=45n
Mn63 n63 n62 0 0 nmos W=0.5u L=45n
Mp64 n64 n63 vdd vdd pmos W=1u L=45n
Mn64 n64 n63 0 0 nmos W=0.5u L=45n
Mp65 n65 n64 vdd vdd pmos W=1u L=45n
Mn65 n65 n64 0 0 nmos W=0.5u L=45n
Mp66 n66 n65 vdd vdd pmos W=1u L=45n
Mn66 n66 n65 0 0 nmos W=0.5u L=45n
Mp67 n67 n66 vdd vdd pmos W=1u L=45n
Mn67 n67 n66 0 0 nmos W=0.5u L=45n
Mp68 n68 n67 vdd vdd pmos W=1u L=45n
Mn68 n68 n67 0 0 nmos W=0.5u L=45n
Mp69 n69 n68 vdd vdd pmos W=1u L=45n
Mn69 n69 n68 0 0 nmos W=0.5u L=45n
Mp70 n70 n69 vdd vdd pmos W=1u L=45n
Mn70 n70 n69 0 0 nmos W=0.5u L=45n
Mp71 n71 n70 vdd vdd pmos W=1u L=45n
Mn71 n71 n70 0 0 nmos W=0.5u L=45n
Mp72 n72 n71 vdd vdd pmos W=1u L=45n
Mn72 n72 n71 0 0 nmos W=0.5u L=45n
Mp73 n73 n72 vdd vdd pmos W=1u L=45n
Mn73 n73 n72 0 0 nmos W=0.5u L=45n
Mp74 n74 n73 vdd vdd pmos W=1u L=45n
Mn74 n74 n73 0 0 nmos W=0.5u L=45n
Mp75 n75 n74 vdd vdd pmos W=1u L=45n
Mn75 n75 n74 0 0 nmos W=0.5u L=45n
Mp76 n76 n75 vdd vdd pmos W=1u L=45n
Mn76 n76 n75 0 0 nmos W=0.5u L=45n
Mp77 n77 n76 vdd vdd pmos W=1u L=45n
Mn77 n77 n76 0 0 nmos W=0.5u L=45n
Mp78 n78 n77 vdd vdd pmos W=1u L=45n
Mn78 n78 n77 0 0 nmos W=0.5u L=45n
Mp79 n79 n78 vdd vdd pmos W=1u L=45n
Mn79 n79 n78 0 0 nmos W=0.5u L=45n
Mp80 n80 n79 vdd vdd pmos W=1u L=45n
Mn80 n80 n79 0 0 nmos W=0.5u L=45n
Mp81 n81 n80 vdd vdd pmos W=1u L=45n
Mn81 n81 n80 0 0 nmos W=0.5u L=45n
Mp82 n82 n81 vdd vdd pmos W=1u L=45n
Mn82 n82 n81 0 0 nmos W=0.5u L=45n
Mp83 n83 n82 vdd vdd pmos W=1u L=45n
Mn83 n83 n82 0 0 nmos W=0.5u L=45n
Mp84 n84 n83 vdd vdd pmos W=1u L=45n
Mn84 n84 n83 0 0 nmos W=0.5u L=45n
Mp85 n85 n84 vdd vdd pmos W=1u L=45n
Mn85 n85 n84 0 0 nmos W=0.5u L=45n
Mp86 n86 n85 vdd vdd pmos W=1u L=45n
Mn86 n86 n85 0 0 nmos W=0.5u L=45n
Mp87 n87 n86 vdd vdd pmos W=1u L=45n
Mn87 n87 n86 0 0 nmos W=0.5u L=45n
Mp88 n88 n87 vdd vdd pmos W=1u L=45n
Mn88 n88 n87 0 0 nmos W=0.5u L=45n
Mp89 n89 n88 vdd vdd pmos W=1u L=45n
Mn89 n89 n88 0 0 nmos W=0.5u L=45n
Mp90 n90 n89 vdd vdd pmos W=1u L=45n
Mn90 n90 n89 0 0 nmos W=0.5u L=45n
Mp91 n91 n90 vdd vdd pmos W=1u L=45n
Mn91 n91 n90 0 0 nmos W=0.5u L=45n
Mp92 n92 n91 vdd vdd pmos W=1u L=45n
Mn92 n92 n91 0 0 nmos W=0.5u L=45n
Mp93 n93 n92 vdd vdd pmos W=1u L=45n
Mn93 n93 n92 0 0 nmos W=0.5u L=45n
Mp94 n94 n93 vdd vdd pmos W=1u L=45n
Mn94 n94 n93 0 0 nmos W=0.5u L=45n
Mp95 n95 n94 vdd vdd pmos W=1u L=45n
Mn95 n95 n94 0 0 nmos W=0.5u L=45n
Mp96 n96 n95 vdd vdd pmos W=1u L=45n
Mn96 n96 n95 0 0 nmos W=0.5u L=45n
Mp97 n97 n96 vdd vdd pmos W=1u L=45n
Mn97 n97 n96 0 0 nmos W=0.5u L=45n
Mp98 n98 n97 vdd vdd pmos W=1u L=45n
Mn98 n98 n97 0 0 nmos W=0.5u L=45n
Mp99 n99 n98 vdd vdd pmos W=1u L=45n
Mn99 n99 n98 0 0 nmos W=0.5u L=45n
Mp100 n100 n99 vdd vdd pmos W=1u L=45n
Mn100 n100 n99 0 0 nmos W=0.5u L=45n
Mp101 n101 n100 vdd vdd pmos W=1u L=45n
Mn101 n101 n100 0 0 nmos W=0.5u L=45n
Mp102 n102 n101 vdd vdd pmos W=1u L=45n
Mn102 n102 n101 0 0 nmos W=0.5u L=45n
Mp103 n103 n102 vdd vdd pmos W=1u L=45n
Mn103 n103 n102 0 0 nmos W=0.5u L=45n
Mp104 n104 n103 vdd vdd pmos W=1u L=45n
Mn104 n104 n103 0 0 nmos W=0.5u L=45n
Mp105 n105 n104 vdd vdd pmos W=1u L=45n
Mn105 n105 n104 0 0 nmos W=0.5u L=45n
Mp106 n106 n105 vdd vdd pmos W=1u L=45n
Mn106 n106 n105 0 0 nmos W=0.5u L=45n
Mp107 n107 n106 vdd vdd pmos W=1u L=45n
Mn107 n107 n106 0 0 nmos W=0.5u L=45n
Mp108 n108 n107 vdd vdd pmos W=1u L=45n
Mn108 n108 n107 0 0 nmos W=0.5u L=45n
Mp109 n109 n108 vdd vdd pmos W=1u L=45n
Mn109 n109 n108 0 0 nmos W=0.5u L=45n
Mp110 n110 n109 vdd vdd pmos W=1u L=45n
Mn110 n110 n109 0 0 nmos W=0.5u L=45n
Mp111 n111 n110 vdd vdd pmos W=1u L=45n
Mn111 n111 n110 0 0 nmos W=0.5u L=45n
Mp112 n112 n111 vdd vdd pmos W=1u L=45n
Mn112 n112 n111 0 0 nmos W=0.5u L=45n
Mp113 n113 n112 vdd vdd pmos W=1u L=45n
Mn113 n113 n112 0 0 nmos W=0.5u L=45n
Mp114 n114 n113 vdd vdd pmos W=1u L=45n
Mn114 n114 n113 0 0 nmos W=0.5u L=45n
Mp115 n115 n114 vdd vdd pmos W=1u L=45n
Mn115 n115 n114 0 0 nmos W=0.5u L=45n
Mp116 n116 n115 vdd vdd pmos W=1u L=45n
Mn116 n116 n115 0 0 nmos W=0.5u L=45n
Mp117 n117 n116 vdd vdd pmos W=1u L=45n
Mn117 n117 n116 0 0 nmos W=0.5u L=45n
Mp118 n118 n117 vdd vdd pmos W=1u L=45n
Mn118 n118 n117 0 0 nmos W=0.5u L=45n
Mp119 n119 n118 vdd vdd pmos W=1u L=45n
Mn119 n119 n118 0 0 nmos W=0.5u L=45n
Mp120 n120 n119 vdd vdd pmos W=1u L=45n
Mn120 n120 n119 0 0 nmos W=0.5u L=45n
Mp121 n121 n120 vdd vdd pmos W=1u L=45n
Mn121 n121 n120 0 0 nmos W=0.5u L=45n
Mp122 n122 n121 vdd vdd pmos W=1u L=45n
Mn122 n122 n121 0 0 nmos W=0.5u L=45n
Mp123 n123 n122 vdd vdd pmos W=1u L=45n
Mn123 n123 n122 0 0 nmos W=0.5u L=45n
Mp124 n124 n123 vdd vdd pmos W=1u L=45n
Mn124 n124 n123 0 0 nmos W=0.5u L=45n
Mp125 n125 n124 vdd vdd pmos W=1u L=45n
Mn125 n125 n124 0 0 nmos W=0.5u L=45n
Mp126 n126 n125 vdd vdd pmos W=1u L=45n
Mn126 n126 n125 0 0 nmos W=0.5u L=45n
Mp127 n127 n126 vdd vdd pmos W=1u L=45n
Mn127 n127 n126 0 0 nmos W=0.5u L=45n
Mp128 n128 n127 vdd vdd pmos W=1u L=45n
Mn128 n128 n127 0 0 nmos W=0.5u L=45n
Mp129 n129 n128 vdd vdd pmos W=1u L=45n
Mn129 n129 n128 0 0 nmos W=0.5u L=45n
Mp130 n130 n129 vdd vdd pmos W=1u L=45n
Mn130 n130 n129 0 0 nmos W=0.5u L=45n
Mp131 n131 n130 vdd vdd pmos W=1u L=45n
Mn131 n131 n130 0 0 nmos W=0.5u L=45n
Mp132 n132 n131 vdd vdd pmos W=1u L=45n
Mn132 n132 n131 0 0 nmos W=0.5u L=45n
Mp133 n133 n132 vdd vdd pmos W=1u L=45n
Mn133 n133 n132 0 0 nmos W=0.5u L=45n
Mp134 n134 n133 vdd vdd pmos W=1u L=45n
Mn134 n134 n133 0 0 nmos W=0.5u L=45n
Mp135 n135 n134 vdd vdd pmos W=1u L=45n
Mn135 n135 n134 0 0 nmos W=0.5u L=45n
Mp136 n136 n135 vdd vdd pmos W=1u L=45n
Mn136 n136 n135 0 0 nmos W=0.5u L=45n
Mp137 n137 n136 vdd vdd pmos W=1u L=45n
Mn137 n137 n136 0 0 nmos W=0.5u L=45n
Mp138 n138 n137 vdd vdd pmos W=1u L=45n
Mn138 n138 n137 0 0 nmos W=0.5u L=45n
Mp139 n139 n138 vdd vdd pmos W=1u L=45n
Mn139 n139 n138 0 0 nmos W=0.5u L=45n
Mp140 n140 n139 vdd vdd pmos W=1u L=45n
Mn140 n140 n139 0 0 nmos W=0.5u L=45n
Mp141 n141 n140 vdd vdd pmos W=1u L=45n
Mn141 n141 n140 0 0 nmos W=0.5u L=45n
Mp142 n142 n141 vdd vdd pmos W=1u L=45n
Mn142 n142 n141 0 0 nmos W=0.5u L=45n
Mp143 n143 n142 vdd vdd pmos W=1u L=45n
Mn143 n143 n142 0 0 nmos W=0.5u L=45n
Mp144 n144 n143 vdd vdd pmos W=1u L=45n
Mn144 n144 n143 0 0 nmos W=0.5u L=45n
Mp145 n145 n144 vdd vdd pmos W=1u L=45n
Mn145 n145 n144 0 0 nmos W=0.5u L=45n
Mp146 n146 n145 vdd vdd pmos W=1u L=45n
Mn146 n146 n145 0 0 nmos W=0.5u L=45n
Mp147 n147 n146 vdd vdd pmos W=1u L=45n
Mn147 n147 n146 0 0 nmos W=0.5u L=45n
Mp148 n148 n147 vdd vdd pmos W=1u L=45n
Mn148 n148 n147 0 0 nmos W=0.5u L=45n
Mp149 n149 n148 vdd vdd pmos W=1u L=45n
Mn149 n149 n148 0 0 nmos W=0.5u L=45n
Mp150 n150 n149 vdd vdd pmos W=1u L=45n
Mn150 n150 n149 0 0 nmos W=0.5u L=45n
Mp151 n151 n150 vdd vdd pmos W=1u L=45n
Mn151 n151 n150 0 0 nmos W=0.5u L=45n
Mp152 n152 n151 vdd vdd pmos W=1u L=45n
Mn152 n152 n151 0 0 nmos W=0.5u L=45n
Mp153 n153 n152 vdd vdd pmos W=1u L=45n
Mn153 n153 n152 0 0 nmos W=0.5u L=45n
Mp154 n154 n153 vdd vdd pmos W=1u L=45n
Mn154 n154 n153 0 0 nmos W=0.5u L=45n
Mp155 n155 n154 vdd vdd pmos W=1u L=45n
Mn155 n155 n154 0 0 nmos W=0.5u L=45n
Mp156 n156 n155 vdd vdd pmos W=1u L=45n
Mn156 n156 n155 0 0 nmos W=0.5u L=45n
Mp157 n157 n156 vdd vdd pmos W=1u L=45n
Mn157 n157 n156 0 0 nmos W=0.5u L=45n
Mp158 n158 n157 vdd vdd pmos W=1u L=45n
Mn158 n158 n157 0 0 nmos W=0.5u L=45n
Mp159 n159 n158 vdd vdd pmos W=1u L=45n
Mn159 n159 n158 0 0 nmos W=0.5u L=45n
Mp160 n160 n159 vdd vdd pmos W=1u L=45n
Mn160 n160 n159 0 0 nmos W=0.5u L=45n
Mp161 n161 n160 vdd vdd pmos W=1u L=45n
Mn161 n161 n160 0 0 nmos W=0.5u L=45n
Mp162 n162 n161 vdd vdd pmos W=1u L=45n
Mn162 n162 n161 0 0 nmos W=0.5u L=45n
Mp163 n163 n162 vdd vdd pmos W=1u L=45n
Mn163 n163 n162 0 0 nmos W=0.5u L=45n
Mp164 n164 n163 vdd vdd pmos W=1u L=45n
Mn164 n164 n163 0 0 nmos W=0.5u L=45n
Mp165 n165 n164 vdd vdd pmos W=1u L=45n
Mn165 n165 n164 0 0 nmos W=0.5u L=45n
Mp166 n166 n165 vdd vdd pmos W=1u L=45n
Mn166 n166 n165 0 0 nmos W=0.5u L=45n
Mp167 n167 n166 vdd vdd pmos W=1u L=45n
Mn167 n167 n166 0 0 nmos W=0.5u L=45n
Mp168 n168 n167 vdd vdd pmos W=1u L=45n
Mn168 n168 n167 0 0 nmos W=0.5u L=45n
Mp169 n169 n168 vdd vdd pmos W=1u L=45n
Mn169 n169 n168 0 0 nmos W=0.5u L=45n
Mp170 n170 n169 vdd vdd pmos W=1u L=45n
Mn170 n170 n169 0 0 nmos W=0.5u L=45n
Mp171 n171 n170 vdd vdd pmos W=1u L=45n
Mn171 n171 n170 0 0 nmos W=0.5u L=45n
Mp172 n172 n171 vdd vdd pmos W=1u L=45n
Mn172 n172 n171 0 0 nmos W=0.5u L=45n
Mp173 n173 n172 vdd vdd pmos W=1u L=45n
Mn173 n173 n172 0 0 nmos W=0.5u L=45n
Mp174 n174 n173 vdd vdd pmos W=1u L=45n
Mn174 n174 n173 0 0 nmos W=0.5u L=45n
Mp175 n175 n174 vdd vdd pmos W=1u L=45n
Mn175 n175 n174 0 0 nmos W=0.5u L=45n
Mp176 n176 n175 vdd vdd pmos W=1u L=45n
Mn176 n176 n175 0 0 nmos W=0.5u L=45n
Mp177 n177 n176 vdd vdd pmos W=1u L=45n
Mn177 n177 n176 0 0 nmos W=0.5u L=45n
Mp178 n178 n177 vdd vdd pmos W=1u L=45n
Mn178 n178 n177 0 0 nmos W=0.5u L=45n
Mp179 n179 n178 vdd vdd pmos W=1u L=45n
Mn179 n179 n178 0 0 nmos W=0.5u L=45n
Mp180 n180 n179 vdd vdd pmos W=1u L=45n
Mn180 n180 n179 0 0 nmos W=0.5u L=45n
Mp181 n181 n180 vdd vdd pmos W=1u L=45n
Mn181 n181 n180 0 0 nmos W=0.5u L=45n
Mp182 n182 n181 vdd vdd pmos W=1u L=45n
Mn182 n182 n181 0 0 nmos W=0.5u L=45n
Mp183 n183 n182 vdd vdd pmos W=1u L=45n
Mn183 n183 n182 0 0 nmos W=0.5u L=45n
Mp184 n184 n183 vdd vdd pmos W=1u L=45n
Mn184 n184 n183 0 0 nmos W=0.5u L=45n
Mp185 n185 n184 vdd vdd pmos W=1u L=45n
Mn185 n185 n184 0 0 nmos W=0.5u L=45n
Mp186 n186 n185 vdd vdd pmos W=1u L=45n
Mn186 n186 n185 0 0 nmos W=0.5u L=45n
Mp187 n187 n186 vdd vdd pmos W=1u L=45n
Mn187 n187 n186 0 0 nmos W=0.5u L=45n
Mp188 n188 n187 vdd vdd pmos W=1u L=45n
Mn188 n188 n187 0 0 nmos W=0.5u L=45n
Mp189 n189 n188 vdd vdd pmos W=1u L=45n
Mn189 n189 n188 0 0 nmos W=0.5u L=45n
Mp190 n190 n189 vdd vdd pmos W=1u L=45n
Mn190 n190 n189 0 0 nmos W=0.5u L=45n
Mp191 n191 n190 vdd vdd pmos W=1u L=45n
Mn191 n191 n190 0 0 nmos W=0.5u L=45n
Mp192 n192 n191 vdd vdd pmos W=1u L=45n
Mn192 n192 n191 0 0 nmos W=0.5u L=45n
Mp193 n193 n192 vdd vdd pmos W=1u L=45n
Mn193 n193 n192 0 0 nmos W=0.5u L=45n
Mp194 n194 n193 vdd vdd pmos W=1u L=45n
Mn194 n194 n193 0 0 nmos W=0.5u L=45n
Mp195 n195 n194 vdd vdd pmos W=1u L=45n
Mn195 n195 n194 0 0 nmos W=0.5u L=45n
Mp196 n196 n195 vdd vdd pmos W=1u L=45n
Mn196 n196 n195 0 0 nmos W=0.5u L=45n
Mp197 n197 n196 vdd vdd pmos W=1u L=45n
Mn197 n197 n196 0 0 nmos W=0.5u L=45n
Mp198 n198 n197 vdd vdd pmos W=1u L=45n
Mn198 n198 n197 0 0 nmos W=0.5u L=45n
Mp199 n199 n198 vdd vdd pmos W=1u L=45n
Mn199 n199 n198 0 0 nmos W=0.5u L=45n
Mp200 n200 n199 vdd vdd pmos W=1u L=45n
Mn200 n200 n199 0 0 nmos W=0.5u L=45n
Mp201 n201 n200 vdd vdd pmos W=1u L=45n
Mn201 n201 n200 0 0 nmos W=0.5u L=45n
Mp202 n202 n201 vdd vdd pmos W=1u L=45n
Mn202 n202 n201 0 0 nmos W=0.5u L=45n
Mp203 n203 n202 vdd vdd pmos W=1u L=45n
Mn203 n203 n202 0 0 nmos W=0.5u L=45n
Mp204 n204 n203 vdd vdd pmos W=1u L=45n
Mn204 n204 n203 0 0 nmos W=0.5u L=45n
Mp205 n205 n204 vdd vdd pmos W=1u L=45n
Mn205 n205 n204 0 0 nmos W=0.5u L=45n
Mp206 n206 n205 vdd vdd pmos W=1u L=45n
Mn206 n206 n205 0 0 nmos W=0.5u L=45n
Mp207 n207 n206 vdd vdd pmos W=1u L=45n
Mn207 n207 n206 0 0 nmos W=0.5u L=45n
Mp208 n208 n207 vdd vdd pmos W=1u L=45n
Mn208 n208 n207 0 0 nmos W=0.5u L=45n
Mp209 n209 n208 vdd vdd pmos W=1u L=45n
Mn209 n209 n208 0 0 nmos W=0.5u L=45n
Mp210 n210 n209 vdd vdd pmos W=1u L=45n
Mn210 n210 n209 0 0 nmos W=0.5u L=45n
Mp211 n211 n210 vdd vdd pmos W=1u L=45n
Mn211 n211 n210 0 0 nmos W=0.5u L=45n
Mp212 n212 n211 vdd vdd pmos W=1u L=45n
Mn212 n212 n211 0 0 nmos W=0.5u L=45n
Mp213 n213 n212 vdd vdd pmos W=1u L=45n
Mn213 n213 n212 0 0 nmos W=0.5u L=45n
Mp214 n214 n213 vdd vdd pmos W=1u L=45n
Mn214 n214 n213 0 0 nmos W=0.5u L=45n
Mp215 n215 n214 vdd vdd pmos W=1u L=45n
Mn215 n215 n214 0 0 nmos W=0.5u L=45n
Mp216 n216 n215 vdd vdd pmos W=1u L=45n
Mn216 n216 n215 0 0 nmos W=0.5u L=45n
Mp217 n217 n216 vdd vdd pmos W=1u L=45n
Mn217 n217 n216 0 0 nmos W=0.5u L=45n
Mp218 n218 n217 vdd vdd pmos W=1u L=45n
Mn218 n218 n217 0 0 nmos W=0.5u L=45n
Mp219 n219 n218 vdd vdd pmos W=1u L=45n
Mn219 n219 n218 0 0 nmos W=0.5u L=45n
Mp220 n220 n219 vdd vdd pmos W=1u L=45n
Mn220 n220 n219 0 0 nmos W=0.5u L=45n
Mp221 n221 n220 vdd vdd pmos W=1u L=45n
Mn221 n221 n220 0 0 nmos W=0.5u L=45n
Mp222 n222 n221 vdd vdd pmos W=1u L=45n
Mn222 n222 n221 0 0 nmos W=0.5u L=45n
Mp223 n223 n222 vdd vdd pmos W=1u L=45n
Mn223 n223 n222 0 0 nmos W=0.5u L=45n
Mp224 n224 n223 vdd vdd pmos W=1u L=45n
Mn224 n224 n223 0 0 nmos W=0.5u L=45n
Mp225 n225 n224 vdd vdd pmos W=1u L=45n
Mn225 n225 n224 0 0 nmos W=0.5u L=45n
Mp226 n226 n225 vdd vdd pmos W=1u L=45n
Mn226 n226 n225 0 0 nmos W=0.5u L=45n
Mp227 n227 n226 vdd vdd pmos W=1u L=45n
Mn227 n227 n226 0 0 nmos W=0.5u L=45n
Mp228 n228 n227 vdd vdd pmos W=1u L=45n
Mn228 n228 n227 0 0 nmos W=0.5u L=45n
Mp229 n229 n228 vdd vdd pmos W=1u L=45n
Mn229 n229 n228 0 0 nmos W=0.5u L=45n
Mp230 n230 n229 vdd vdd pmos W=1u L=45n
Mn230 n230 n229 0 0 nmos W=0.5u L=45n
Mp231 n231 n230 vdd vdd pmos W=1u L=45n
Mn231 n231 n230 0 0 nmos W=0.5u L=45n
Mp232 n232 n231 vdd vdd pmos W=1u L=45n
Mn232 n232 n231 0 0 nmos W=0.5u L=45n
Mp233 n233 n232 vdd vdd pmos W=1u L=45n
Mn233 n233 n232 0 0 nmos W=0.5u L=45n
Mp234 n234 n233 vdd vdd pmos W=1u L=45n
Mn234 n234 n233 0 0 nmos W=0.5u L=45n
Mp235 n235 n234 vdd vdd pmos W=1u L=45n
Mn235 n235 n234 0 0 nmos W=0.5u L=45n
Mp236 n236 n235 vdd vdd pmos W=1u L=45n
Mn236 n236 n235 0 0 nmos W=0.5u L=45n
Mp237 n237 n236 vdd vdd pmos W=1u L=45n
Mn237 n237 n236 0 0 nmos W=0.5u L=45n
Mp238 n238 n237 vdd vdd pmos W=1u L=45n
Mn238 n238 n237 0 0 nmos W=0.5u L=45n
Mp239 n239 n238 vdd vdd pmos W=1u L=45n
Mn239 n239 n238 0 0 nmos W=0.5u L=45n
Mp240 n240 n239 vdd vdd pmos W=1u L=45n
Mn240 n240 n239 0 0 nmos W=0.5u L=45n
Mp241 n241 n240 vdd vdd pmos W=1u L=45n
Mn241 n241 n240 0 0 nmos W=0.5u L=45n
Mp242 n242 n241 vdd vdd pmos W=1u L=45n
Mn242 n242 n241 0 0 nmos W=0.5u L=45n
Mp243 n243 n242 vdd vdd pmos W=1u L=45n
Mn243 n243 n242 0 0 nmos W=0.5u L=45n
Mp244 n244 n243 vdd vdd pmos W=1u L=45n
Mn244 n244 n243 0 0 nmos W=0.5u L=45n
Mp245 n245 n244 vdd vdd pmos W=1u L=45n
Mn245 n245 n244 0 0 nmos W=0.5u L=45n
Mp246 n246 n245 vdd vdd pmos W=1u L=45n
Mn246 n246 n245 0 0 nmos W=0.5u L=45n
Mp247 n247 n246 vdd vdd pmos W=1u L=45n
Mn247 n247 n246 0 0 nmos W=0.5u L=45n
Mp248 n248 n247 vdd vdd pmos W=1u L=45n
Mn248 n248 n247 0 0 nmos W=0.5u L=45n
Mp249 n249 n248 vdd vdd pmos W=1u L=45n
Mn249 n249 n248 0 0 nmos W=0.5u L=45n
Mp250 n250 n249 vdd vdd pmos W=1u L=45n
Mn250 n250 n249 0 0 nmos W=0.5u L=45n
Mp251 n251 n250 vdd vdd pmos W=1u L=45n
Mn251 n251 n250 0 0 nmos W=0.5u L=45n
Mp252 n252 n251 vdd vdd pmos W=1u L=45n
Mn252 n252 n251 0 0 nmos W=0.5u L=45n
Mp253 n253 n252 vdd vdd pmos W=1u L=45n
Mn253 n253 n252 0 0 nmos W=0.5u L=45n
Mp254 n254 n253 vdd vdd pmos W=1u L=45n
Mn254 n254 n253 0 0 nmos W=0.5u L=45n
Mp255 n255 n254 vdd vdd pmos W=1u L=45n
Mn255 n255 n254 0 0 nmos W=0.5u L=45n
Mp256 n256 n255 vdd vdd pmos W=1u L=45n
Mn256 n256 n255 0 0 nmos W=0.5u L=45n
Mp257 n257 n256 vdd vdd pmos W=1u L=45n
Mn257 n257 n256 0 0 nmos W=0.5u L=45n
Mp258 n258 n257 vdd vdd pmos W=1u L=45n
Mn258 n258 n257 0 0 nmos W=0.5u L=45n
Mp259 n259 n258 vdd vdd pmos W=1u L=45n
Mn259 n259 n258 0 0 nmos W=0.5u L=45n
Mp260 n260 n259 vdd vdd pmos W=1u L=45n
Mn260 n260 n259 0 0 nmos W=0.5u L=45n
Mp261 n261 n260 vdd vdd pmos W=1u L=45n
Mn261 n261 n260 0 0 nmos W=0.5u L=45n
Mp262 n262 n261 vdd vdd pmos W=1u L=45n
Mn262 n262 n261 0 0 nmos W=0.5u L=45n
Mp263 n263 n262 vdd vdd pmos W=1u L=45n
Mn263 n263 n262 0 0 nmos W=0.5u L=45n
Mp264 n264 n263 vdd vdd pmos W=1u L=45n
Mn264 n264 n263 0 0 nmos W=0.5u L=45n
Mp265 n265 n264 vdd vdd pmos W=1u L=45n
Mn265 n265 n264 0 0 nmos W=0.5u L=45n
Mp266 n266 n265 vdd vdd pmos W=1u L=45n
Mn266 n266 n265 0 0 nmos W=0.5u L=45n
Mp267 n267 n266 vdd vdd pmos W=1u L=45n
Mn267 n267 n266 0 0 nmos W=0.5u L=45n
Mp268 n268 n267 vdd vdd pmos W=1u L=45n
Mn268 n268 n267 0 0 nmos W=0.5u L=45n
Mp269 n269 n268 vdd vdd pmos W=1u L=45n
Mn269 n269 n268 0 0 nmos W=0.5u L=45n
Mp270 n270 n269 vdd vdd pmos W=1u L=45n
Mn270 n270 n269 0 0 nmos W=0.5u L=45n
Mp271 n271 n270 vdd vdd pmos W=1u L=45n
Mn271 n271 n270 0 0 nmos W=0.5u L=45n
Mp272 n272 n271 vdd vdd pmos W=1u L=45n
Mn272 n272 n271 0 0 nmos W=0.5u L=45n
Mp273 n273 n272 vdd vdd pmos W=1u L=45n
Mn273 n273 n272 0 0 nmos W=0.5u L=45n
Mp274 n274 n273 vdd vdd pmos W=1u L=45n
Mn274 n274 n273 0 0 nmos W=0.5u L=45n
Mp275 n275 n274 vdd vdd pmos W=1u L=45n
Mn275 n275 n274 0 0 nmos W=0.5u L=45n
Mp276 n276 n275 vdd vdd pmos W=1u L=45n
Mn276 n276 n275 0 0 nmos W=0.5u L=45n
Mp277 n277 n276 vdd vdd pmos W=1u L=45n
Mn277 n277 n276 0 0 nmos W=0.5u L=45n
Mp278 n278 n277 vdd vdd pmos W=1u L=45n
Mn278 n278 n277 0 0 nmos W=0.5u L=45n
Mp279 n279 n278 vdd vdd pmos W=1u L=45n
Mn279 n279 n278 0 0 nmos W=0.5u L=45n
Mp280 n280 n279 vdd vdd pmos W=1u L=45n
Mn280 n280 n279 0 0 nmos W=0.5u L=45n
Mp281 n281 n280 vdd vdd pmos W=1u L=45n
Mn281 n281 n280 0 0 nmos W=0.5u L=45n
Mp282 n282 n281 vdd vdd pmos W=1u L=45n
Mn282 n282 n281 0 0 nmos W=0.5u L=45n
Mp283 n283 n282 vdd vdd pmos W=1u L=45n
Mn283 n283 n282 0 0 nmos W=0.5u L=45n
Mp284 n284 n283 vdd vdd pmos W=1u L=45n
Mn284 n284 n283 0 0 nmos W=0.5u L=45n
Mp285 n285 n284 vdd vdd pmos W=1u L=45n
Mn285 n285 n284 0 0 nmos W=0.5u L=45n
Mp286 n286 n285 vdd vdd pmos W=1u L=45n
Mn286 n286 n285 0 0 nmos W=0.5u L=45n
Mp287 n287 n286 vdd vdd pmos W=1u L=45n
Mn287 n287 n286 0 0 nmos W=0.5u L=45n
Mp288 n288 n287 vdd vdd pmos W=1u L=45n
Mn288 n288 n287 0 0 nmos W=0.5u L=45n
Mp289 n289 n288 vdd vdd pmos W=1u L=45n
Mn289 n289 n288 0 0 nmos W=0.5u L=45n
Mp290 n290 n289 vdd vdd pmos W=1u L=45n
Mn290 n290 n289 0 0 nmos W=0.5u L=45n
Mp291 n291 n290 vdd vdd pmos W=1u L=45n
Mn291 n291 n290 0 0 nmos W=0.5u L=45n
Mp292 n292 n291 vdd vdd pmos W=1u L=45n
Mn292 n292 n291 0 0 nmos W=0.5u L=45n
Mp293 n293 n292 vdd vdd pmos W=1u L=45n
Mn293 n293 n292 0 0 nmos W=0.5u L=45n
Mp294 n294 n293 vdd vdd pmos W=1u L=45n
Mn294 n294 n293 0 0 nmos W=0.5u L=45n
Mp295 n295 n294 vdd vdd pmos W=1u L=45n
Mn295 n295 n294 0 0 nmos W=0.5u L=45n
Mp296 n296 n295 vdd vdd pmos W=1u L=45n
Mn296 n296 n295 0 0 nmos W=0.5u L=45n
Mp297 n297 n296 vdd vdd pmos W=1u L=45n
Mn297 n297 n296 0 0 nmos W=0.5u L=45n
Mp298 n298 n297 vdd vdd pmos W=1u L=45n
Mn298 n298 n297 0 0 nmos W=0.5u L=45n
Mp299 n299 n298 vdd vdd pmos W=1u L=45n
Mn299 n299 n298 0 0 nmos W=0.5u L=45n
Mp300 n300 n299 vdd vdd pmos W=1u L=45n
Mn300 n300 n299 0 0 nmos W=0.5u L=45n
Mp301 n301 n300 vdd vdd pmos W=1u L=45n
Mn301 n301 n300 0 0 nmos W=0.5u L=45n
Mp302 n302 n301 vdd vdd pmos W=1u L=45n
Mn302 n302 n301 0 0 nmos W=0.5u L=45n
Mp303 n303 n302 vdd vdd pmos W=1u L=45n
Mn303 n303 n302 0 0 nmos W=0.5u L=45n
Mp304 n304 n303 vdd vdd pmos W=1u L=45n
Mn304 n304 n303 0 0 nmos W=0.5u L=45n
Mp305 n305 n304 vdd vdd pmos W=1u L=45n
Mn305 n305 n304 0 0 nmos W=0.5u L=45n
Mp306 n306 n305 vdd vdd pmos W=1u L=45n
Mn306 n306 n305 0 0 nmos W=0.5u L=45n
Mp307 n307 n306 vdd vdd pmos W=1u L=45n
Mn307 n307 n306 0 0 nmos W=0.5u L=45n
Mp308 n308 n307 vdd vdd pmos W=1u L=45n
Mn308 n308 n307 0 0 nmos W=0.5u L=45n
Mp309 n309 n308 vdd vdd pmos W=1u L=45n
Mn309 n309 n308 0 0 nmos W=0.5u L=45n
Mp310 n310 n309 vdd vdd pmos W=1u L=45n
Mn310 n310 n309 0 0 nmos W=0.5u L=45n
Mp311 n311 n310 vdd vdd pmos W=1u L=45n
Mn311 n311 n310 0 0 nmos W=0.5u L=45n
Mp312 n312 n311 vdd vdd pmos W=1u L=45n
Mn312 n312 n311 0 0 nmos W=0.5u L=45n
Mp313 n313 n312 vdd vdd pmos W=1u L=45n
Mn313 n313 n312 0 0 nmos W=0.5u L=45n
Mp314 n314 n313 vdd vdd pmos W=1u L=45n
Mn314 n314 n313 0 0 nmos W=0.5u L=45n
Mp315 n315 n314 vdd vdd pmos W=1u L=45n
Mn315 n315 n314 0 0 nmos W=0.5u L=45n
Mp316 n316 n315 vdd vdd pmos W=1u L=45n
Mn316 n316 n315 0 0 nmos W=0.5u L=45n
Mp317 n317 n316 vdd vdd pmos W=1u L=45n
Mn317 n317 n316 0 0 nmos W=0.5u L=45n
Mp318 n318 n317 vdd vdd pmos W=1u L=45n
Mn318 n318 n317 0 0 nmos W=0.5u L=45n
Mp319 n319 n318 vdd vdd pmos W=1u L=45n
Mn319 n319 n318 0 0 nmos W=0.5u L=45n
Mp320 n320 n319 vdd vdd pmos W=1u L=45n
Mn320 n320 n319 0 0 nmos W=0.5u L=45n
Mp321 n321 n320 vdd vdd pmos W=1u L=45n
Mn321 n321 n320 0 0 nmos W=0.5u L=45n
Mp322 n322 n321 vdd vdd pmos W=1u L=45n
Mn322 n322 n321 0 0 nmos W=0.5u L=45n
Mp323 n323 n322 vdd vdd pmos W=1u L=45n
Mn323 n323 n322 0 0 nmos W=0.5u L=45n
Mp324 n324 n323 vdd vdd pmos W=1u L=45n
Mn324 n324 n323 0 0 nmos W=0.5u L=45n
Mp325 n325 n324 vdd vdd pmos W=1u L=45n
Mn325 n325 n324 0 0 nmos W=0.5u L=45n
Mp326 n326 n325 vdd vdd pmos W=1u L=45n
Mn326 n326 n325 0 0 nmos W=0.5u L=45n
Mp327 n327 n326 vdd vdd pmos W=1u L=45n
Mn327 n327 n326 0 0 nmos W=0.5u L=45n
Mp328 n328 n327 vdd vdd pmos W=1u L=45n
Mn328 n328 n327 0 0 nmos W=0.5u L=45n
Mp329 n329 n328 vdd vdd pmos W=1u L=45n
Mn329 n329 n328 0 0 nmos W=0.5u L=45n
Mp330 n330 n329 vdd vdd pmos W=1u L=45n
Mn330 n330 n329 0 0 nmos W=0.5u L=45n
Mp331 n331 n330 vdd vdd pmos W=1u L=45n
Mn331 n331 n330 0 0 nmos W=0.5u L=45n
Mp332 n332 n331 vdd vdd pmos W=1u L=45n
Mn332 n332 n331 0 0 nmos W=0.5u L=45n
Mp333 n333 n332 vdd vdd pmos W=1u L=45n
Mn333 n333 n332 0 0 nmos W=0.5u L=45n
Mp334 n334 n333 vdd vdd pmos W=1u L=45n
Mn334 n334 n333 0 0 nmos W=0.5u L=45n
Mp335 n335 n334 vdd vdd pmos W=1u L=45n
Mn335 n335 n334 0 0 nmos W=0.5u L=45n
Mp336 n336 n335 vdd vdd pmos W=1u L=45n
Mn336 n336 n335 0 0 nmos W=0.5u L=45n
Mp337 n337 n336 vdd vdd pmos W=1u L=45n
Mn337 n337 n336 0 0 nmos W=0.5u L=45n
Mp338 n338 n337 vdd vdd pmos W=1u L=45n
Mn338 n338 n337 0 0 nmos W=0.5u L=45n
Mp339 n339 n338 vdd vdd pmos W=1u L=45n
Mn339 n339 n338 0 0 nmos W=0.5u L=45n
Mp340 n340 n339 vdd vdd pmos W=1u L=45n
Mn340 n340 n339 0 0 nmos W=0.5u L=45n
Mp341 n341 n340 vdd vdd pmos W=1u L=45n
Mn341 n341 n340 0 0 nmos W=0.5u L=45n
Mp342 n342 n341 vdd vdd pmos W=1u L=45n
Mn342 n342 n341 0 0 nmos W=0.5u L=45n
Mp343 n343 n342 vdd vdd pmos W=1u L=45n
Mn343 n343 n342 0 0 nmos W=0.5u L=45n
Mp344 n344 n343 vdd vdd pmos W=1u L=45n
Mn344 n344 n343 0 0 nmos W=0.5u L=45n
Mp345 n345 n344 vdd vdd pmos W=1u L=45n
Mn345 n345 n344 0 0 nmos W=0.5u L=45n
Mp346 n346 n345 vdd vdd pmos W=1u L=45n
Mn346 n346 n345 0 0 nmos W=0.5u L=45n
Mp347 n347 n346 vdd vdd pmos W=1u L=45n
Mn347 n347 n346 0 0 nmos W=0.5u L=45n
Mp348 n348 n347 vdd vdd pmos W=1u L=45n
Mn348 n348 n347 0 0 nmos W=0.5u L=45n
Mp349 n349 n348 vdd vdd pmos W=1u L=45n
Mn349 n349 n348 0 0 nmos W=0.5u L=45n
Mp350 n350 n349 vdd vdd pmos W=1u L=45n
Mn350 n350 n349 0 0 nmos W=0.5u L=45n
Mp351 n351 n350 vdd vdd pmos W=1u L=45n
Mn351 n351 n350 0 0 nmos W=0.5u L=45n
Mp352 n352 n351 vdd vdd pmos W=1u L=45n
Mn352 n352 n351 0 0 nmos W=0.5u L=45n
Mp353 n353 n352 vdd vdd pmos W=1u L=45n
Mn353 n353 n352 0 0 nmos W=0.5u L=45n
Mp354 n354 n353 vdd vdd pmos W=1u L=45n
Mn354 n354 n353 0 0 nmos W=0.5u L=45n
Mp355 n355 n354 vdd vdd pmos W=1u L=45n
Mn355 n355 n354 0 0 nmos W=0.5u L=45n
Mp356 n356 n355 vdd vdd pmos W=1u L=45n
Mn356 n356 n355 0 0 nmos W=0.5u L=45n
Mp357 n357 n356 vdd vdd pmos W=1u L=45n
Mn357 n357 n356 0 0 nmos W=0.5u L=45n
Mp358 n358 n357 vdd vdd pmos W=1u L=45n
Mn358 n358 n357 0 0 nmos W=0.5u L=45n
Mp359 n359 n358 vdd vdd pmos W=1u L=45n
Mn359 n359 n358 0 0 nmos W=0.5u L=45n
Mp360 n360 n359 vdd vdd pmos W=1u L=45n
Mn360 n360 n359 0 0 nmos W=0.5u L=45n
Mp361 n361 n360 vdd vdd pmos W=1u L=45n
Mn361 n361 n360 0 0 nmos W=0.5u L=45n
Mp362 n362 n361 vdd vdd pmos W=1u L=45n
Mn362 n362 n361 0 0 nmos W=0.5u L=45n
Mp363 n363 n362 vdd vdd pmos W=1u L=45n
Mn363 n363 n362 0 0 nmos W=0.5u L=45n
Mp364 n364 n363 vdd vdd pmos W=1u L=45n
Mn364 n364 n363 0 0 nmos W=0.5u L=45n
Mp365 n365 n364 vdd vdd pmos W=1u L=45n
Mn365 n365 n364 0 0 nmos W=0.5u L=45n
Mp366 n366 n365 vdd vdd pmos W=1u L=45n
Mn366 n366 n365 0 0 nmos W=0.5u L=45n
Mp367 n367 n366 vdd vdd pmos W=1u L=45n
Mn367 n367 n366 0 0 nmos W=0.5u L=45n
Mp368 n368 n367 vdd vdd pmos W=1u L=45n
Mn368 n368 n367 0 0 nmos W=0.5u L=45n
Mp369 n369 n368 vdd vdd pmos W=1u L=45n
Mn369 n369 n368 0 0 nmos W=0.5u L=45n
Mp370 n370 n369 vdd vdd pmos W=1u L=45n
Mn370 n370 n369 0 0 nmos W=0.5u L=45n
Mp371 n371 n370 vdd vdd pmos W=1u L=45n
Mn371 n371 n370 0 0 nmos W=0.5u L=45n
Mp372 n372 n371 vdd vdd pmos W=1u L=45n
Mn372 n372 n371 0 0 nmos W=0.5u L=45n
Mp373 n373 n372 vdd vdd pmos W=1u L=45n
Mn373 n373 n372 0 0 nmos W=0.5u L=45n
Mp374 n374 n373 vdd vdd pmos W=1u L=45n
Mn374 n374 n373 0 0 nmos W=0.5u L=45n
Mp375 n375 n374 vdd vdd pmos W=1u L=45n
Mn375 n375 n374 0 0 nmos W=0.5u L=45n
Mp376 n376 n375 vdd vdd pmos W=1u L=45n
Mn376 n376 n375 0 0 nmos W=0.5u L=45n
Mp377 n377 n376 vdd vdd pmos W=1u L=45n
Mn377 n377 n376 0 0 nmos W=0.5u L=45n
Mp378 n378 n377 vdd vdd pmos W=1u L=45n
Mn378 n378 n377 0 0 nmos W=0.5u L=45n