* 500-stage CMOS inverter chain (no subcircuits) using BSIM4 models
.options acct
.options num_threads=8
VDD vdd 0 1.0
*VIN n0 0 PULSE (0 1.0 0 10p 10p 2n 4n)
VIN n0 0 1
Cload n500 0 1f

* Models
.model nmos nmos (level=14 version=4.8.2)
.model pmos pmos (level=14 version=4.8.2)

* Added: series resistor between each inverter and global VDD


* Inverters expanded inline: Mp=PMOS pull-up, Mn=NMOS pull-down
* Each stage i uses local supply node vddi, with Rvddi from global vdd to vddi
Rvdd1 vdd vdd1 1k
Mp1 n1 n0 vdd1 vdd1 pmos W=1u L=45n
Mn1 n1 n0 0 0 nmos W=0.5u L=45n
Rvdd2 vdd vdd2 1k
Mp2 n2 n1 vdd2 vdd2 pmos W=1u L=45n
Mn2 n2 n1 0 0 nmos W=0.5u L=45n
Rvdd3 vdd vdd3 1k
Mp3 n3 n2 vdd3 vdd3 pmos W=1u L=45n
Mn3 n3 n2 0 0 nmos W=0.5u L=45n
Rvdd4 vdd vdd4 1k
Mp4 n4 n3 vdd4 vdd4 pmos W=1u L=45n
Mn4 n4 n3 0 0 nmos W=0.5u L=45n
Rvdd5 vdd vdd5 1k
Mp5 n5 n4 vdd5 vdd5 pmos W=1u L=45n
Mn5 n5 n4 0 0 nmos W=0.5u L=45n
Rvdd6 vdd vdd6 1k
Mp6 n6 n5 vdd6 vdd6 pmos W=1u L=45n
Mn6 n6 n5 0 0 nmos W=0.5u L=45n
Rvdd7 vdd vdd7 1k
Mp7 n7 n6 vdd7 vdd7 pmos W=1u L=45n
Mn7 n7 n6 0 0 nmos W=0.5u L=45n
Rvdd8 vdd vdd8 1k
Mp8 n8 n7 vdd8 vdd8 pmos W=1u L=45n
Mn8 n8 n7 0 0 nmos W=0.5u L=45n
Rvdd9 vdd vdd9 1k
Mp9 n9 n8 vdd9 vdd9 pmos W=1u L=45n
Mn9 n9 n8 0 0 nmos W=0.5u L=45n
Rvdd10 vdd vdd10 1k
Mp10 n10 n9 vdd10 vdd10 pmos W=1u L=45n
Mn10 n10 n9 0 0 nmos W=0.5u L=45n
Rvdd11 vdd vdd11 1k
Mp11 n11 n10 vdd11 vdd11 pmos W=1u L=45n
Mn11 n11 n10 0 0 nmos W=0.5u L=45n
Rvdd12 vdd vdd12 1k
Mp12 n12 n11 vdd12 vdd12 pmos W=1u L=45n
Mn12 n12 n11 0 0 nmos W=0.5u L=45n
Rvdd13 vdd vdd13 1k
Mp13 n13 n12 vdd13 vdd13 pmos W=1u L=45n
Mn13 n13 n12 0 0 nmos W=0.5u L=45n
Rvdd14 vdd vdd14 1k
Mp14 n14 n13 vdd14 vdd14 pmos W=1u L=45n
Mn14 n14 n13 0 0 nmos W=0.5u L=45n
Rvdd15 vdd vdd15 1k
Mp15 n15 n14 vdd15 vdd15 pmos W=1u L=45n
Mn15 n15 n14 0 0 nmos W=0.5u L=45n
Rvdd16 vdd vdd16 1k
Mp16 n16 n15 vdd16 vdd16 pmos W=1u L=45n
Mn16 n16 n15 0 0 nmos W=0.5u L=45n
Rvdd17 vdd vdd17 1k
Mp17 n17 n16 vdd17 vdd17 pmos W=1u L=45n
Mn17 n17 n16 0 0 nmos W=0.5u L=45n
Rvdd18 vdd vdd18 1k
Mp18 n18 n17 vdd18 vdd18 pmos W=1u L=45n
Mn18 n18 n17 0 0 nmos W=0.5u L=45n
Rvdd19 vdd vdd19 1k
Mp19 n19 n18 vdd19 vdd19 pmos W=1u L=45n
Mn19 n19 n18 0 0 nmos W=0.5u L=45n
Rvdd20 vdd vdd20 1k
Mp20 n20 n19 vdd20 vdd20 pmos W=1u L=45n
Mn20 n20 n19 0 0 nmos W=0.5u L=45n
Rvdd21 vdd vdd21 1k
Mp21 n21 n20 vdd21 vdd21 pmos W=1u L=45n
Mn21 n21 n20 0 0 nmos W=0.5u L=45n
Rvdd22 vdd vdd22 1k
Mp22 n22 n21 vdd22 vdd22 pmos W=1u L=45n
Mn22 n22 n21 0 0 nmos W=0.5u L=45n
Rvdd23 vdd vdd23 1k
Mp23 n23 n22 vdd23 vdd23 pmos W=1u L=45n
Mn23 n23 n22 0 0 nmos W=0.5u L=45n
Rvdd24 vdd vdd24 1k
Mp24 n24 n23 vdd24 vdd24 pmos W=1u L=45n
Mn24 n24 n23 0 0 nmos W=0.5u L=45n
Rvdd25 vdd vdd25 1k
Mp25 n25 n24 vdd25 vdd25 pmos W=1u L=45n
Mn25 n25 n24 0 0 nmos W=0.5u L=45n
Rvdd26 vdd vdd26 1k
Mp26 n26 n25 vdd26 vdd26 pmos W=1u L=45n
Mn26 n26 n25 0 0 nmos W=0.5u L=45n
Rvdd27 vdd vdd27 1k
Mp27 n27 n26 vdd27 vdd27 pmos W=1u L=45n
Mn27 n27 n26 0 0 nmos W=0.5u L=45n
Rvdd28 vdd vdd28 1k
Mp28 n28 n27 vdd28 vdd28 pmos W=1u L=45n
Mn28 n28 n27 0 0 nmos W=0.5u L=45n
Rvdd29 vdd vdd29 1k
Mp29 n29 n28 vdd29 vdd29 pmos W=1u L=45n
Mn29 n29 n28 0 0 nmos W=0.5u L=45n
Rvdd30 vdd vdd30 1k
Mp30 n30 n29 vdd30 vdd30 pmos W=1u L=45n
Mn30 n30 n29 0 0 nmos W=0.5u L=45n
Rvdd31 vdd vdd31 1k
Mp31 n31 n30 vdd31 vdd31 pmos W=1u L=45n
Mn31 n31 n30 0 0 nmos W=0.5u L=45n
Rvdd32 vdd vdd32 1k
Mp32 n32 n31 vdd32 vdd32 pmos W=1u L=45n
Mn32 n32 n31 0 0 nmos W=0.5u L=45n
Rvdd33 vdd vdd33 1k
Mp33 n33 n32 vdd33 vdd33 pmos W=1u L=45n
Mn33 n33 n32 0 0 nmos W=0.5u L=45n
Rvdd34 vdd vdd34 1k
Mp34 n34 n33 vdd34 vdd34 pmos W=1u L=45n
Mn34 n34 n33 0 0 nmos W=0.5u L=45n
Rvdd35 vdd vdd35 1k
Mp35 n35 n34 vdd35 vdd35 pmos W=1u L=45n
Mn35 n35 n34 0 0 nmos W=0.5u L=45n
Rvdd36 vdd vdd36 1k
Mp36 n36 n35 vdd36 vdd36 pmos W=1u L=45n
Mn36 n36 n35 0 0 nmos W=0.5u L=45n
Rvdd37 vdd vdd37 1k
Mp37 n37 n36 vdd37 vdd37 pmos W=1u L=45n
Mn37 n37 n36 0 0 nmos W=0.5u L=45n
Rvdd38 vdd vdd38 1k
Mp38 n38 n37 vdd38 vdd38 pmos W=1u L=45n
Mn38 n38 n37 0 0 nmos W=0.5u L=45n
Rvdd39 vdd vdd39 1k
Mp39 n39 n38 vdd39 vdd39 pmos W=1u L=45n
Mn39 n39 n38 0 0 nmos W=0.5u L=45n
Rvdd40 vdd vdd40 1k
Mp40 n40 n39 vdd40 vdd40 pmos W=1u L=45n
Mn40 n40 n39 0 0 nmos W=0.5u L=45n
Rvdd41 vdd vdd41 1k
Mp41 n41 n40 vdd41 vdd41 pmos W=1u L=45n
Mn41 n41 n40 0 0 nmos W=0.5u L=45n
Rvdd42 vdd vdd42 1k
Mp42 n42 n41 vdd42 vdd42 pmos W=1u L=45n
Mn42 n42 n41 0 0 nmos W=0.5u L=45n
Rvdd43 vdd vdd43 1k
Mp43 n43 n42 vdd43 vdd43 pmos W=1u L=45n
Mn43 n43 n42 0 0 nmos W=0.5u L=45n
Rvdd44 vdd vdd44 1k
Mp44 n44 n43 vdd44 vdd44 pmos W=1u L=45n
Mn44 n44 n43 0 0 nmos W=0.5u L=45n
Rvdd45 vdd vdd45 1k
Mp45 n45 n44 vdd45 vdd45 pmos W=1u L=45n
Mn45 n45 n44 0 0 nmos W=0.5u L=45n
Rvdd46 vdd vdd46 1k
Mp46 n46 n45 vdd46 vdd46 pmos W=1u L=45n
Mn46 n46 n45 0 0 nmos W=0.5u L=45n
Rvdd47 vdd vdd47 1k
Mp47 n47 n46 vdd47 vdd47 pmos W=1u L=45n
Mn47 n47 n46 0 0 nmos W=0.5u L=45n
Rvdd48 vdd vdd48 1k
Mp48 n48 n47 vdd48 vdd48 pmos W=1u L=45n
Mn48 n48 n47 0 0 nmos W=0.5u L=45n
Rvdd49 vdd vdd49 1k
Mp49 n49 n48 vdd49 vdd49 pmos W=1u L=45n
Mn49 n49 n48 0 0 nmos W=0.5u L=45n
Rvdd50 vdd vdd50 1k
Mp50 n50 n49 vdd50 vdd50 pmos W=1u L=45n
Mn50 n50 n49 0 0 nmos W=0.5u L=45n
Rvdd51 vdd vdd51 1k
Mp51 n51 n50 vdd51 vdd51 pmos W=1u L=45n
Mn51 n51 n50 0 0 nmos W=0.5u L=45n
Rvdd52 vdd vdd52 1k
Mp52 n52 n51 vdd52 vdd52 pmos W=1u L=45n
Mn52 n52 n51 0 0 nmos W=0.5u L=45n
Rvdd53 vdd vdd53 1k
Mp53 n53 n52 vdd53 vdd53 pmos W=1u L=45n
Mn53 n53 n52 0 0 nmos W=0.5u L=45n
Rvdd54 vdd vdd54 1k
Mp54 n54 n53 vdd54 vdd54 pmos W=1u L=45n
Mn54 n54 n53 0 0 nmos W=0.5u L=45n
Rvdd55 vdd vdd55 1k
Mp55 n55 n54 vdd55 vdd55 pmos W=1u L=45n
Mn55 n55 n54 0 0 nmos W=0.5u L=45n
Rvdd56 vdd vdd56 1k
Mp56 n56 n55 vdd56 vdd56 pmos W=1u L=45n
Mn56 n56 n55 0 0 nmos W=0.5u L=45n
Rvdd57 vdd vdd57 1k
Mp57 n57 n56 vdd57 vdd57 pmos W=1u L=45n
Mn57 n57 n56 0 0 nmos W=0.5u L=45n
Rvdd58 vdd vdd58 1k
Mp58 n58 n57 vdd58 vdd58 pmos W=1u L=45n
Mn58 n58 n57 0 0 nmos W=0.5u L=45n
Rvdd59 vdd vdd59 1k
Mp59 n59 n58 vdd59 vdd59 pmos W=1u L=45n
Mn59 n59 n58 0 0 nmos W=0.5u L=45n
Rvdd60 vdd vdd60 1k
Mp60 n60 n59 vdd60 vdd60 pmos W=1u L=45n
Mn60 n60 n59 0 0 nmos W=0.5u L=45n
Rvdd61 vdd vdd61 1k
Mp61 n61 n60 vdd61 vdd61 pmos W=1u L=45n
Mn61 n61 n60 0 0 nmos W=0.5u L=45n
Rvdd62 vdd vdd62 1k
Mp62 n62 n61 vdd62 vdd62 pmos W=1u L=45n
Mn62 n62 n61 0 0 nmos W=0.5u L=45n
Rvdd63 vdd vdd63 1k
Mp63 n63 n62 vdd63 vdd63 pmos W=1u L=45n
Mn63 n63 n62 0 0 nmos W=0.5u L=45n
Rvdd64 vdd vdd64 1k
Mp64 n64 n63 vdd64 vdd64 pmos W=1u L=45n
Mn64 n64 n63 0 0 nmos W=0.5u L=45n
Rvdd65 vdd vdd65 1k
Mp65 n65 n64 vdd65 vdd65 pmos W=1u L=45n
Mn65 n65 n64 0 0 nmos W=0.5u L=45n
Rvdd66 vdd vdd66 1k
Mp66 n66 n65 vdd66 vdd66 pmos W=1u L=45n
Mn66 n66 n65 0 0 nmos W=0.5u L=45n
Rvdd67 vdd vdd67 1k
Mp67 n67 n66 vdd67 vdd67 pmos W=1u L=45n
Mn67 n67 n66 0 0 nmos W=0.5u L=45n
Rvdd68 vdd vdd68 1k
Mp68 n68 n67 vdd68 vdd68 pmos W=1u L=45n
Mn68 n68 n67 0 0 nmos W=0.5u L=45n
Rvdd69 vdd vdd69 1k
Mp69 n69 n68 vdd69 vdd69 pmos W=1u L=45n
Mn69 n69 n68 0 0 nmos W=0.5u L=45n
Rvdd70 vdd vdd70 1k
Mp70 n70 n69 vdd70 vdd70 pmos W=1u L=45n
Mn70 n70 n69 0 0 nmos W=0.5u L=45n
Rvdd71 vdd vdd71 1k
Mp71 n71 n70 vdd71 vdd71 pmos W=1u L=45n
Mn71 n71 n70 0 0 nmos W=0.5u L=45n
Rvdd72 vdd vdd72 1k
Mp72 n72 n71 vdd72 vdd72 pmos W=1u L=45n
Mn72 n72 n71 0 0 nmos W=0.5u L=45n
Rvdd73 vdd vdd73 1k
Mp73 n73 n72 vdd73 vdd73 pmos W=1u L=45n
Mn73 n73 n72 0 0 nmos W=0.5u L=45n
Rvdd74 vdd vdd74 1k
Mp74 n74 n73 vdd74 vdd74 pmos W=1u L=45n
Mn74 n74 n73 0 0 nmos W=0.5u L=45n
Rvdd75 vdd vdd75 1k
Mp75 n75 n74 vdd75 vdd75 pmos W=1u L=45n
Mn75 n75 n74 0 0 nmos W=0.5u L=45n
Rvdd76 vdd vdd76 1k
Mp76 n76 n75 vdd76 vdd76 pmos W=1u L=45n
Mn76 n76 n75 0 0 nmos W=0.5u L=45n
Rvdd77 vdd vdd77 1k
Mp77 n77 n76 vdd77 vdd77 pmos W=1u L=45n
Mn77 n77 n76 0 0 nmos W=0.5u L=45n
Rvdd78 vdd vdd78 1k
Mp78 n78 n77 vdd78 vdd78 pmos W=1u L=45n
Mn78 n78 n77 0 0 nmos W=0.5u L=45n
Rvdd79 vdd vdd79 1k
Mp79 n79 n78 vdd79 vdd79 pmos W=1u L=45n
Mn79 n79 n78 0 0 nmos W=0.5u L=45n
Rvdd80 vdd vdd80 1k
Mp80 n80 n79 vdd80 vdd80 pmos W=1u L=45n
Mn80 n80 n79 0 0 nmos W=0.5u L=45n
Rvdd81 vdd vdd81 1k
Mp81 n81 n80 vdd81 vdd81 pmos W=1u L=45n
Mn81 n81 n80 0 0 nmos W=0.5u L=45n
Rvdd82 vdd vdd82 1k
Mp82 n82 n81 vdd82 vdd82 pmos W=1u L=45n
Mn82 n82 n81 0 0 nmos W=0.5u L=45n
Rvdd83 vdd vdd83 1k
Mp83 n83 n82 vdd83 vdd83 pmos W=1u L=45n
Mn83 n83 n82 0 0 nmos W=0.5u L=45n
Rvdd84 vdd vdd84 1k
Mp84 n84 n83 vdd84 vdd84 pmos W=1u L=45n
Mn84 n84 n83 0 0 nmos W=0.5u L=45n
Rvdd85 vdd vdd85 1k
Mp85 n85 n84 vdd85 vdd85 pmos W=1u L=45n
Mn85 n85 n84 0 0 nmos W=0.5u L=45n
Rvdd86 vdd vdd86 1k
Mp86 n86 n85 vdd86 vdd86 pmos W=1u L=45n
Mn86 n86 n85 0 0 nmos W=0.5u L=45n
Rvdd87 vdd vdd87 1k
Mp87 n87 n86 vdd87 vdd87 pmos W=1u L=45n
Mn87 n87 n86 0 0 nmos W=0.5u L=45n
Rvdd88 vdd vdd88 1k
Mp88 n88 n87 vdd88 vdd88 pmos W=1u L=45n
Mn88 n88 n87 0 0 nmos W=0.5u L=45n
Rvdd89 vdd vdd89 1k
Mp89 n89 n88 vdd89 vdd89 pmos W=1u L=45n
Mn89 n89 n88 0 0 nmos W=0.5u L=45n
Rvdd90 vdd vdd90 1k
Mp90 n90 n89 vdd90 vdd90 pmos W=1u L=45n
Mn90 n90 n89 0 0 nmos W=0.5u L=45n
Rvdd91 vdd vdd91 1k
Mp91 n91 n90 vdd91 vdd91 pmos W=1u L=45n
Mn91 n91 n90 0 0 nmos W=0.5u L=45n
Rvdd92 vdd vdd92 1k
Mp92 n92 n91 vdd92 vdd92 pmos W=1u L=45n
Mn92 n92 n91 0 0 nmos W=0.5u L=45n
Rvdd93 vdd vdd93 1k
Mp93 n93 n92 vdd93 vdd93 pmos W=1u L=45n
Mn93 n93 n92 0 0 nmos W=0.5u L=45n
Rvdd94 vdd vdd94 1k
Mp94 n94 n93 vdd94 vdd94 pmos W=1u L=45n
Mn94 n94 n93 0 0 nmos W=0.5u L=45n
Rvdd95 vdd vdd95 1k
Mp95 n95 n94 vdd95 vdd95 pmos W=1u L=45n
Mn95 n95 n94 0 0 nmos W=0.5u L=45n
Rvdd96 vdd vdd96 1k
Mp96 n96 n95 vdd96 vdd96 pmos W=1u L=45n
Mn96 n96 n95 0 0 nmos W=0.5u L=45n
Rvdd97 vdd vdd97 1k
Mp97 n97 n96 vdd97 vdd97 pmos W=1u L=45n
Mn97 n97 n96 0 0 nmos W=0.5u L=45n
Rvdd98 vdd vdd98 1k
Mp98 n98 n97 vdd98 vdd98 pmos W=1u L=45n
Mn98 n98 n97 0 0 nmos W=0.5u L=45n
Rvdd99 vdd vdd99 1k
Mp99 n99 n98 vdd99 vdd99 pmos W=1u L=45n
Mn99 n99 n98 0 0 nmos W=0.5u L=45n
Rvdd100 vdd vdd100 1k
Mp100 n100 n99 vdd100 vdd100 pmos W=1u L=45n
Mn100 n100 n99 0 0 nmos W=0.5u L=45n
Rvdd101 vdd vdd101 1k
Mp101 n101 n100 vdd101 vdd101 pmos W=1u L=45n
Mn101 n101 n100 0 0 nmos W=0.5u L=45n
Rvdd102 vdd vdd102 1k
Mp102 n102 n101 vdd102 vdd102 pmos W=1u L=45n
Mn102 n102 n101 0 0 nmos W=0.5u L=45n
Rvdd103 vdd vdd103 1k
Mp103 n103 n102 vdd103 vdd103 pmos W=1u L=45n
Mn103 n103 n102 0 0 nmos W=0.5u L=45n
Rvdd104 vdd vdd104 1k
Mp104 n104 n103 vdd104 vdd104 pmos W=1u L=45n
Mn104 n104 n103 0 0 nmos W=0.5u L=45n
Rvdd105 vdd vdd105 1k
Mp105 n105 n104 vdd105 vdd105 pmos W=1u L=45n
Mn105 n105 n104 0 0 nmos W=0.5u L=45n
Rvdd106 vdd vdd106 1k
Mp106 n106 n105 vdd106 vdd106 pmos W=1u L=45n
Mn106 n106 n105 0 0 nmos W=0.5u L=45n
Rvdd107 vdd vdd107 1k
Mp107 n107 n106 vdd107 vdd107 pmos W=1u L=45n
Mn107 n107 n106 0 0 nmos W=0.5u L=45n
Rvdd108 vdd vdd108 1k
Mp108 n108 n107 vdd108 vdd108 pmos W=1u L=45n
Mn108 n108 n107 0 0 nmos W=0.5u L=45n
Rvdd109 vdd vdd109 1k
Mp109 n109 n108 vdd109 vdd109 pmos W=1u L=45n
Mn109 n109 n108 0 0 nmos W=0.5u L=45n
Rvdd110 vdd vdd110 1k
Mp110 n110 n109 vdd110 vdd110 pmos W=1u L=45n
Mn110 n110 n109 0 0 nmos W=0.5u L=45n
Rvdd111 vdd vdd111 1k
Mp111 n111 n110 vdd111 vdd111 pmos W=1u L=45n
Mn111 n111 n110 0 0 nmos W=0.5u L=45n
Rvdd112 vdd vdd112 1k
Mp112 n112 n111 vdd112 vdd112 pmos W=1u L=45n
Mn112 n112 n111 0 0 nmos W=0.5u L=45n
Rvdd113 vdd vdd113 1k
Mp113 n113 n112 vdd113 vdd113 pmos W=1u L=45n
Mn113 n113 n112 0 0 nmos W=0.5u L=45n
Rvdd114 vdd vdd114 1k
Mp114 n114 n113 vdd114 vdd114 pmos W=1u L=45n
Mn114 n114 n113 0 0 nmos W=0.5u L=45n
Rvdd115 vdd vdd115 1k
Mp115 n115 n114 vdd115 vdd115 pmos W=1u L=45n
Mn115 n115 n114 0 0 nmos W=0.5u L=45n
Rvdd116 vdd vdd116 1k
Mp116 n116 n115 vdd116 vdd116 pmos W=1u L=45n
Mn116 n116 n115 0 0 nmos W=0.5u L=45n
Rvdd117 vdd vdd117 1k
Mp117 n117 n116 vdd117 vdd117 pmos W=1u L=45n
Mn117 n117 n116 0 0 nmos W=0.5u L=45n
Rvdd118 vdd vdd118 1k
Mp118 n118 n117 vdd118 vdd118 pmos W=1u L=45n
Mn118 n118 n117 0 0 nmos W=0.5u L=45n
Rvdd119 vdd vdd119 1k
Mp119 n119 n118 vdd119 vdd119 pmos W=1u L=45n
Mn119 n119 n118 0 0 nmos W=0.5u L=45n
Rvdd120 vdd vdd120 1k
Mp120 n120 n119 vdd120 vdd120 pmos W=1u L=45n
Mn120 n120 n119 0 0 nmos W=0.5u L=45n
Rvdd121 vdd vdd121 1k
Mp121 n121 n120 vdd121 vdd121 pmos W=1u L=45n
Mn121 n121 n120 0 0 nmos W=0.5u L=45n
Rvdd122 vdd vdd122 1k
Mp122 n122 n121 vdd122 vdd122 pmos W=1u L=45n
Mn122 n122 n121 0 0 nmos W=0.5u L=45n
Rvdd123 vdd vdd123 1k
Mp123 n123 n122 vdd123 vdd123 pmos W=1u L=45n
Mn123 n123 n122 0 0 nmos W=0.5u L=45n
Rvdd124 vdd vdd124 1k
Mp124 n124 n123 vdd124 vdd124 pmos W=1u L=45n
Mn124 n124 n123 0 0 nmos W=0.5u L=45n
Rvdd125 vdd vdd125 1k
Mp125 n125 n124 vdd125 vdd125 pmos W=1u L=45n
Mn125 n125 n124 0 0 nmos W=0.5u L=45n
Rvdd126 vdd vdd126 1k
Mp126 n126 n125 vdd126 vdd126 pmos W=1u L=45n
Mn126 n126 n125 0 0 nmos W=0.5u L=45n
Rvdd127 vdd vdd127 1k
Mp127 n127 n126 vdd127 vdd127 pmos W=1u L=45n
Mn127 n127 n126 0 0 nmos W=0.5u L=45n
Rvdd128 vdd vdd128 1k
Mp128 n128 n127 vdd128 vdd128 pmos W=1u L=45n
Mn128 n128 n127 0 0 nmos W=0.5u L=45n
Rvdd129 vdd vdd129 1k
Mp129 n129 n128 vdd129 vdd129 pmos W=1u L=45n
Mn129 n129 n128 0 0 nmos W=0.5u L=45n
Rvdd130 vdd vdd130 1k
Mp130 n130 n129 vdd130 vdd130 pmos W=1u L=45n
Mn130 n130 n129 0 0 nmos W=0.5u L=45n
Rvdd131 vdd vdd131 1k
Mp131 n131 n130 vdd131 vdd131 pmos W=1u L=45n
Mn131 n131 n130 0 0 nmos W=0.5u L=45n
Rvdd132 vdd vdd132 1k
Mp132 n132 n131 vdd132 vdd132 pmos W=1u L=45n
Mn132 n132 n131 0 0 nmos W=0.5u L=45n
Rvdd133 vdd vdd133 1k
Mp133 n133 n132 vdd133 vdd133 pmos W=1u L=45n
Mn133 n133 n132 0 0 nmos W=0.5u L=45n
Rvdd134 vdd vdd134 1k
Mp134 n134 n133 vdd134 vdd134 pmos W=1u L=45n
Mn134 n134 n133 0 0 nmos W=0.5u L=45n
Rvdd135 vdd vdd135 1k
Mp135 n135 n134 vdd135 vdd135 pmos W=1u L=45n
Mn135 n135 n134 0 0 nmos W=0.5u L=45n
Rvdd136 vdd vdd136 1k
Mp136 n136 n135 vdd136 vdd136 pmos W=1u L=45n
Mn136 n136 n135 0 0 nmos W=0.5u L=45n
Rvdd137 vdd vdd137 1k
Mp137 n137 n136 vdd137 vdd137 pmos W=1u L=45n
Mn137 n137 n136 0 0 nmos W=0.5u L=45n
Rvdd138 vdd vdd138 1k
Mp138 n138 n137 vdd138 vdd138 pmos W=1u L=45n
Mn138 n138 n137 0 0 nmos W=0.5u L=45n
Rvdd139 vdd vdd139 1k
Mp139 n139 n138 vdd139 vdd139 pmos W=1u L=45n
Mn139 n139 n138 0 0 nmos W=0.5u L=45n
Rvdd140 vdd vdd140 1k
Mp140 n140 n139 vdd140 vdd140 pmos W=1u L=45n
Mn140 n140 n139 0 0 nmos W=0.5u L=45n
Rvdd141 vdd vdd141 1k
Mp141 n141 n140 vdd141 vdd141 pmos W=1u L=45n
Mn141 n141 n140 0 0 nmos W=0.5u L=45n
Rvdd142 vdd vdd142 1k
Mp142 n142 n141 vdd142 vdd142 pmos W=1u L=45n
Mn142 n142 n141 0 0 nmos W=0.5u L=45n
Rvdd143 vdd vdd143 1k
Mp143 n143 n142 vdd143 vdd143 pmos W=1u L=45n
Mn143 n143 n142 0 0 nmos W=0.5u L=45n
Rvdd144 vdd vdd144 1k
Mp144 n144 n143 vdd144 vdd144 pmos W=1u L=45n
Mn144 n144 n143 0 0 nmos W=0.5u L=45n
Rvdd145 vdd vdd145 1k
Mp145 n145 n144 vdd145 vdd145 pmos W=1u L=45n
Mn145 n145 n144 0 0 nmos W=0.5u L=45n
Rvdd146 vdd vdd146 1k
Mp146 n146 n145 vdd146 vdd146 pmos W=1u L=45n
Mn146 n146 n145 0 0 nmos W=0.5u L=45n
Rvdd147 vdd vdd147 1k
Mp147 n147 n146 vdd147 vdd147 pmos W=1u L=45n
Mn147 n147 n146 0 0 nmos W=0.5u L=45n
Rvdd148 vdd vdd148 1k
Mp148 n148 n147 vdd148 vdd148 pmos W=1u L=45n
Mn148 n148 n147 0 0 nmos W=0.5u L=45n
Rvdd149 vdd vdd149 1k
Mp149 n149 n148 vdd149 vdd149 pmos W=1u L=45n
Mn149 n149 n148 0 0 nmos W=0.5u L=45n
Rvdd150 vdd vdd150 1k
Mp150 n150 n149 vdd150 vdd150 pmos W=1u L=45n
Mn150 n150 n149 0 0 nmos W=0.5u L=45n
Rvdd151 vdd vdd151 1k
Mp151 n151 n150 vdd151 vdd151 pmos W=1u L=45n
Mn151 n151 n150 0 0 nmos W=0.5u L=45n
Rvdd152 vdd vdd152 1k
Mp152 n152 n151 vdd152 vdd152 pmos W=1u L=45n
Mn152 n152 n151 0 0 nmos W=0.5u L=45n
Rvdd153 vdd vdd153 1k
Mp153 n153 n152 vdd153 vdd153 pmos W=1u L=45n
Mn153 n153 n152 0 0 nmos W=0.5u L=45n
Rvdd154 vdd vdd154 1k
Mp154 n154 n153 vdd154 vdd154 pmos W=1u L=45n
Mn154 n154 n153 0 0 nmos W=0.5u L=45n
Rvdd155 vdd vdd155 1k
Mp155 n155 n154 vdd155 vdd155 pmos W=1u L=45n
Mn155 n155 n154 0 0 nmos W=0.5u L=45n
Rvdd156 vdd vdd156 1k
Mp156 n156 n155 vdd156 vdd156 pmos W=1u L=45n
Mn156 n156 n155 0 0 nmos W=0.5u L=45n
Rvdd157 vdd vdd157 1k
Mp157 n157 n156 vdd157 vdd157 pmos W=1u L=45n
Mn157 n157 n156 0 0 nmos W=0.5u L=45n
Rvdd158 vdd vdd158 1k
Mp158 n158 n157 vdd158 vdd158 pmos W=1u L=45n
Mn158 n158 n157 0 0 nmos W=0.5u L=45n
Rvdd159 vdd vdd159 1k
Mp159 n159 n158 vdd159 vdd159 pmos W=1u L=45n
Mn159 n159 n158 0 0 nmos W=0.5u L=45n
Rvdd160 vdd vdd160 1k
Mp160 n160 n159 vdd160 vdd160 pmos W=1u L=45n
Mn160 n160 n159 0 0 nmos W=0.5u L=45n
Rvdd161 vdd vdd161 1k
Mp161 n161 n160 vdd161 vdd161 pmos W=1u L=45n
Mn161 n161 n160 0 0 nmos W=0.5u L=45n
Rvdd162 vdd vdd162 1k
Mp162 n162 n161 vdd162 vdd162 pmos W=1u L=45n
Mn162 n162 n161 0 0 nmos W=0.5u L=45n
Rvdd163 vdd vdd163 1k
Mp163 n163 n162 vdd163 vdd163 pmos W=1u L=45n
Mn163 n163 n162 0 0 nmos W=0.5u L=45n
Rvdd164 vdd vdd164 1k
Mp164 n164 n163 vdd164 vdd164 pmos W=1u L=45n
Mn164 n164 n163 0 0 nmos W=0.5u L=45n
Rvdd165 vdd vdd165 1k
Mp165 n165 n164 vdd165 vdd165 pmos W=1u L=45n
Mn165 n165 n164 0 0 nmos W=0.5u L=45n
Rvdd166 vdd vdd166 1k
Mp166 n166 n165 vdd166 vdd166 pmos W=1u L=45n
Mn166 n166 n165 0 0 nmos W=0.5u L=45n
Rvdd167 vdd vdd167 1k
Mp167 n167 n166 vdd167 vdd167 pmos W=1u L=45n
Mn167 n167 n166 0 0 nmos W=0.5u L=45n
Rvdd168 vdd vdd168 1k
Mp168 n168 n167 vdd168 vdd168 pmos W=1u L=45n
Mn168 n168 n167 0 0 nmos W=0.5u L=45n
Rvdd169 vdd vdd169 1k
Mp169 n169 n168 vdd169 vdd169 pmos W=1u L=45n
Mn169 n169 n168 0 0 nmos W=0.5u L=45n
Rvdd170 vdd vdd170 1k
Mp170 n170 n169 vdd170 vdd170 pmos W=1u L=45n
Mn170 n170 n169 0 0 nmos W=0.5u L=45n
Rvdd171 vdd vdd171 1k
Mp171 n171 n170 vdd171 vdd171 pmos W=1u L=45n
Mn171 n171 n170 0 0 nmos W=0.5u L=45n
Rvdd172 vdd vdd172 1k
Mp172 n172 n171 vdd172 vdd172 pmos W=1u L=45n
Mn172 n172 n171 0 0 nmos W=0.5u L=45n
Rvdd173 vdd vdd173 1k
Mp173 n173 n172 vdd173 vdd173 pmos W=1u L=45n
Mn173 n173 n172 0 0 nmos W=0.5u L=45n
Rvdd174 vdd vdd174 1k
Mp174 n174 n173 vdd174 vdd174 pmos W=1u L=45n
Mn174 n174 n173 0 0 nmos W=0.5u L=45n
Rvdd175 vdd vdd175 1k
Mp175 n175 n174 vdd175 vdd175 pmos W=1u L=45n
Mn175 n175 n174 0 0 nmos W=0.5u L=45n
Rvdd176 vdd vdd176 1k
Mp176 n176 n175 vdd176 vdd176 pmos W=1u L=45n
Mn176 n176 n175 0 0 nmos W=0.5u L=45n
Rvdd177 vdd vdd177 1k
Mp177 n177 n176 vdd177 vdd177 pmos W=1u L=45n
Mn177 n177 n176 0 0 nmos W=0.5u L=45n
Rvdd178 vdd vdd178 1k
Mp178 n178 n177 vdd178 vdd178 pmos W=1u L=45n
Mn178 n178 n177 0 0 nmos W=0.5u L=45n
Rvdd179 vdd vdd179 1k
Mp179 n179 n178 vdd179 vdd179 pmos W=1u L=45n
Mn179 n179 n178 0 0 nmos W=0.5u L=45n
Rvdd180 vdd vdd180 1k
Mp180 n180 n179 vdd180 vdd180 pmos W=1u L=45n
Mn180 n180 n179 0 0 nmos W=0.5u L=45n
Rvdd181 vdd vdd181 1k
Mp181 n181 n180 vdd181 vdd181 pmos W=1u L=45n
Mn181 n181 n180 0 0 nmos W=0.5u L=45n
Rvdd182 vdd vdd182 1k
Mp182 n182 n181 vdd182 vdd182 pmos W=1u L=45n
Mn182 n182 n181 0 0 nmos W=0.5u L=45n
Rvdd183 vdd vdd183 1k
Mp183 n183 n182 vdd183 vdd183 pmos W=1u L=45n
Mn183 n183 n182 0 0 nmos W=0.5u L=45n
Rvdd184 vdd vdd184 1k
Mp184 n184 n183 vdd184 vdd184 pmos W=1u L=45n
Mn184 n184 n183 0 0 nmos W=0.5u L=45n
Rvdd185 vdd vdd185 1k
Mp185 n185 n184 vdd185 vdd185 pmos W=1u L=45n
Mn185 n185 n184 0 0 nmos W=0.5u L=45n
Rvdd186 vdd vdd186 1k
Mp186 n186 n185 vdd186 vdd186 pmos W=1u L=45n
Mn186 n186 n185 0 0 nmos W=0.5u L=45n
Rvdd187 vdd vdd187 1k
Mp187 n187 n186 vdd187 vdd187 pmos W=1u L=45n
Mn187 n187 n186 0 0 nmos W=0.5u L=45n
Rvdd188 vdd vdd188 1k
Mp188 n188 n187 vdd188 vdd188 pmos W=1u L=45n
Mn188 n188 n187 0 0 nmos W=0.5u L=45n
Rvdd189 vdd vdd189 1k
Mp189 n189 n188 vdd189 vdd189 pmos W=1u L=45n
Mn189 n189 n188 0 0 nmos W=0.5u L=45n
Rvdd190 vdd vdd190 1k
Mp190 n190 n189 vdd190 vdd190 pmos W=1u L=45n
Mn190 n190 n189 0 0 nmos W=0.5u L=45n
Rvdd191 vdd vdd191 1k
Mp191 n191 n190 vdd191 vdd191 pmos W=1u L=45n
Mn191 n191 n190 0 0 nmos W=0.5u L=45n
Rvdd192 vdd vdd192 1k
Mp192 n192 n191 vdd192 vdd192 pmos W=1u L=45n
Mn192 n192 n191 0 0 nmos W=0.5u L=45n
Rvdd193 vdd vdd193 1k
Mp193 n193 n192 vdd193 vdd193 pmos W=1u L=45n
Mn193 n193 n192 0 0 nmos W=0.5u L=45n
Rvdd194 vdd vdd194 1k
Mp194 n194 n193 vdd194 vdd194 pmos W=1u L=45n
Mn194 n194 n193 0 0 nmos W=0.5u L=45n
Rvdd195 vdd vdd195 1k
Mp195 n195 n194 vdd195 vdd195 pmos W=1u L=45n
Mn195 n195 n194 0 0 nmos W=0.5u L=45n
Rvdd196 vdd vdd196 1k
Mp196 n196 n195 vdd196 vdd196 pmos W=1u L=45n
Mn196 n196 n195 0 0 nmos W=0.5u L=45n
Rvdd197 vdd vdd197 1k
Mp197 n197 n196 vdd197 vdd197 pmos W=1u L=45n
Mn197 n197 n196 0 0 nmos W=0.5u L=45n
Rvdd198 vdd vdd198 1k
Mp198 n198 n197 vdd198 vdd198 pmos W=1u L=45n
Mn198 n198 n197 0 0 nmos W=0.5u L=45n
Rvdd199 vdd vdd199 1k
Mp199 n199 n198 vdd199 vdd199 pmos W=1u L=45n
Mn199 n199 n198 0 0 nmos W=0.5u L=45n
Rvdd200 vdd vdd200 1k
Mp200 n200 n199 vdd200 vdd200 pmos W=1u L=45n
Mn200 n200 n199 0 0 nmos W=0.5u L=45n
Rvdd201 vdd vdd201 1k
Mp201 n201 n200 vdd201 vdd201 pmos W=1u L=45n
Mn201 n201 n200 0 0 nmos W=0.5u L=45n
Rvdd202 vdd vdd202 1k
Mp202 n202 n201 vdd202 vdd202 pmos W=1u L=45n
Mn202 n202 n201 0 0 nmos W=0.5u L=45n
Rvdd203 vdd vdd203 1k
Mp203 n203 n202 vdd203 vdd203 pmos W=1u L=45n
Mn203 n203 n202 0 0 nmos W=0.5u L=45n
Rvdd204 vdd vdd204 1k
Mp204 n204 n203 vdd204 vdd204 pmos W=1u L=45n
Mn204 n204 n203 0 0 nmos W=0.5u L=45n
Rvdd205 vdd vdd205 1k
Mp205 n205 n204 vdd205 vdd205 pmos W=1u L=45n
Mn205 n205 n204 0 0 nmos W=0.5u L=45n
Rvdd206 vdd vdd206 1k
Mp206 n206 n205 vdd206 vdd206 pmos W=1u L=45n
Mn206 n206 n205 0 0 nmos W=0.5u L=45n
Rvdd207 vdd vdd207 1k
Mp207 n207 n206 vdd207 vdd207 pmos W=1u L=45n
Mn207 n207 n206 0 0 nmos W=0.5u L=45n
Rvdd208 vdd vdd208 1k
Mp208 n208 n207 vdd208 vdd208 pmos W=1u L=45n
Mn208 n208 n207 0 0 nmos W=0.5u L=45n
Rvdd209 vdd vdd209 1k
Mp209 n209 n208 vdd209 vdd209 pmos W=1u L=45n
Mn209 n209 n208 0 0 nmos W=0.5u L=45n
Rvdd210 vdd vdd210 1k
Mp210 n210 n209 vdd210 vdd210 pmos W=1u L=45n
Mn210 n210 n209 0 0 nmos W=0.5u L=45n
Rvdd211 vdd vdd211 1k
Mp211 n211 n210 vdd211 vdd211 pmos W=1u L=45n
Mn211 n211 n210 0 0 nmos W=0.5u L=45n
Rvdd212 vdd vdd212 1k
Mp212 n212 n211 vdd212 vdd212 pmos W=1u L=45n
Mn212 n212 n211 0 0 nmos W=0.5u L=45n
Rvdd213 vdd vdd213 1k
Mp213 n213 n212 vdd213 vdd213 pmos W=1u L=45n
Mn213 n213 n212 0 0 nmos W=0.5u L=45n
Rvdd214 vdd vdd214 1k
Mp214 n214 n213 vdd214 vdd214 pmos W=1u L=45n
Mn214 n214 n213 0 0 nmos W=0.5u L=45n
Rvdd215 vdd vdd215 1k
Mp215 n215 n214 vdd215 vdd215 pmos W=1u L=45n
Mn215 n215 n214 0 0 nmos W=0.5u L=45n
Rvdd216 vdd vdd216 1k
Mp216 n216 n215 vdd216 vdd216 pmos W=1u L=45n
Mn216 n216 n215 0 0 nmos W=0.5u L=45n
Rvdd217 vdd vdd217 1k
Mp217 n217 n216 vdd217 vdd217 pmos W=1u L=45n
Mn217 n217 n216 0 0 nmos W=0.5u L=45n
Rvdd218 vdd vdd218 1k
Mp218 n218 n217 vdd218 vdd218 pmos W=1u L=45n
Mn218 n218 n217 0 0 nmos W=0.5u L=45n
Rvdd219 vdd vdd219 1k
Mp219 n219 n218 vdd219 vdd219 pmos W=1u L=45n
Mn219 n219 n218 0 0 nmos W=0.5u L=45n
Rvdd220 vdd vdd220 1k
Mp220 n220 n219 vdd220 vdd220 pmos W=1u L=45n
Mn220 n220 n219 0 0 nmos W=0.5u L=45n
Rvdd221 vdd vdd221 1k
Mp221 n221 n220 vdd221 vdd221 pmos W=1u L=45n
Mn221 n221 n220 0 0 nmos W=0.5u L=45n
Rvdd222 vdd vdd222 1k
Mp222 n222 n221 vdd222 vdd222 pmos W=1u L=45n
Mn222 n222 n221 0 0 nmos W=0.5u L=45n
Rvdd223 vdd vdd223 1k
Mp223 n223 n222 vdd223 vdd223 pmos W=1u L=45n
Mn223 n223 n222 0 0 nmos W=0.5u L=45n
Rvdd224 vdd vdd224 1k
Mp224 n224 n223 vdd224 vdd224 pmos W=1u L=45n
Mn224 n224 n223 0 0 nmos W=0.5u L=45n
Rvdd225 vdd vdd225 1k
Mp225 n225 n224 vdd225 vdd225 pmos W=1u L=45n
Mn225 n225 n224 0 0 nmos W=0.5u L=45n
Rvdd226 vdd vdd226 1k
Mp226 n226 n225 vdd226 vdd226 pmos W=1u L=45n
Mn226 n226 n225 0 0 nmos W=0.5u L=45n
Rvdd227 vdd vdd227 1k
Mp227 n227 n226 vdd227 vdd227 pmos W=1u L=45n
Mn227 n227 n226 0 0 nmos W=0.5u L=45n
Rvdd228 vdd vdd228 1k
Mp228 n228 n227 vdd228 vdd228 pmos W=1u L=45n
Mn228 n228 n227 0 0 nmos W=0.5u L=45n
Rvdd229 vdd vdd229 1k
Mp229 n229 n228 vdd229 vdd229 pmos W=1u L=45n
Mn229 n229 n228 0 0 nmos W=0.5u L=45n
Rvdd230 vdd vdd230 1k
Mp230 n230 n229 vdd230 vdd230 pmos W=1u L=45n
Mn230 n230 n229 0 0 nmos W=0.5u L=45n
Rvdd231 vdd vdd231 1k
Mp231 n231 n230 vdd231 vdd231 pmos W=1u L=45n
Mn231 n231 n230 0 0 nmos W=0.5u L=45n
Rvdd232 vdd vdd232 1k
Mp232 n232 n231 vdd232 vdd232 pmos W=1u L=45n
Mn232 n232 n231 0 0 nmos W=0.5u L=45n
Rvdd233 vdd vdd233 1k
Mp233 n233 n232 vdd233 vdd233 pmos W=1u L=45n
Mn233 n233 n232 0 0 nmos W=0.5u L=45n
Rvdd234 vdd vdd234 1k
Mp234 n234 n233 vdd234 vdd234 pmos W=1u L=45n
Mn234 n234 n233 0 0 nmos W=0.5u L=45n
Rvdd235 vdd vdd235 1k
Mp235 n235 n234 vdd235 vdd235 pmos W=1u L=45n
Mn235 n235 n234 0 0 nmos W=0.5u L=45n
Rvdd236 vdd vdd236 1k
Mp236 n236 n235 vdd236 vdd236 pmos W=1u L=45n
Mn236 n236 n235 0 0 nmos W=0.5u L=45n
Rvdd237 vdd vdd237 1k
Mp237 n237 n236 vdd237 vdd237 pmos W=1u L=45n
Mn237 n237 n236 0 0 nmos W=0.5u L=45n
Rvdd238 vdd vdd238 1k
Mp238 n238 n237 vdd238 vdd238 pmos W=1u L=45n
Mn238 n238 n237 0 0 nmos W=0.5u L=45n
Rvdd239 vdd vdd239 1k
Mp239 n239 n238 vdd239 vdd239 pmos W=1u L=45n
Mn239 n239 n238 0 0 nmos W=0.5u L=45n
Rvdd240 vdd vdd240 1k
Mp240 n240 n239 vdd240 vdd240 pmos W=1u L=45n
Mn240 n240 n239 0 0 nmos W=0.5u L=45n
Rvdd241 vdd vdd241 1k
Mp241 n241 n240 vdd241 vdd241 pmos W=1u L=45n
Mn241 n241 n240 0 0 nmos W=0.5u L=45n
Rvdd242 vdd vdd242 1k
Mp242 n242 n241 vdd242 vdd242 pmos W=1u L=45n
Mn242 n242 n241 0 0 nmos W=0.5u L=45n
Rvdd243 vdd vdd243 1k
Mp243 n243 n242 vdd243 vdd243 pmos W=1u L=45n
Mn243 n243 n242 0 0 nmos W=0.5u L=45n
Rvdd244 vdd vdd244 1k
Mp244 n244 n243 vdd244 vdd244 pmos W=1u L=45n
Mn244 n244 n243 0 0 nmos W=0.5u L=45n
Rvdd245 vdd vdd245 1k
Mp245 n245 n244 vdd245 vdd245 pmos W=1u L=45n
Mn245 n245 n244 0 0 nmos W=0.5u L=45n
Rvdd246 vdd vdd246 1k
Mp246 n246 n245 vdd246 vdd246 pmos W=1u L=45n
Mn246 n246 n245 0 0 nmos W=0.5u L=45n
Rvdd247 vdd vdd247 1k
Mp247 n247 n246 vdd247 vdd247 pmos W=1u L=45n
Mn247 n247 n246 0 0 nmos W=0.5u L=45n
Rvdd248 vdd vdd248 1k
Mp248 n248 n247 vdd248 vdd248 pmos W=1u L=45n
Mn248 n248 n247 0 0 nmos W=0.5u L=45n
Rvdd249 vdd vdd249 1k
Mp249 n249 n248 vdd249 vdd249 pmos W=1u L=45n
Mn249 n249 n248 0 0 nmos W=0.5u L=45n
Rvdd250 vdd vdd250 1k
Mp250 n250 n249 vdd250 vdd250 pmos W=1u L=45n
Mn250 n250 n249 0 0 nmos W=0.5u L=45n
Rvdd251 vdd vdd251 1k
Mp251 n251 n250 vdd251 vdd251 pmos W=1u L=45n
Mn251 n251 n250 0 0 nmos W=0.5u L=45n
Rvdd252 vdd vdd252 1k
Mp252 n252 n251 vdd252 vdd252 pmos W=1u L=45n
Mn252 n252 n251 0 0 nmos W=0.5u L=45n
Rvdd253 vdd vdd253 1k
Mp253 n253 n252 vdd253 vdd253 pmos W=1u L=45n
Mn253 n253 n252 0 0 nmos W=0.5u L=45n
Rvdd254 vdd vdd254 1k
Mp254 n254 n253 vdd254 vdd254 pmos W=1u L=45n
Mn254 n254 n253 0 0 nmos W=0.5u L=45n
Rvdd255 vdd vdd255 1k
Mp255 n255 n254 vdd255 vdd255 pmos W=1u L=45n
Mn255 n255 n254 0 0 nmos W=0.5u L=45n
Rvdd256 vdd vdd256 1k
Mp256 n256 n255 vdd256 vdd256 pmos W=1u L=45n
Mn256 n256 n255 0 0 nmos W=0.5u L=45n
Rvdd257 vdd vdd257 1k
Mp257 n257 n256 vdd257 vdd257 pmos W=1u L=45n
Mn257 n257 n256 0 0 nmos W=0.5u L=45n
Rvdd258 vdd vdd258 1k
Mp258 n258 n257 vdd258 vdd258 pmos W=1u L=45n
Mn258 n258 n257 0 0 nmos W=0.5u L=45n
Rvdd259 vdd vdd259 1k
Mp259 n259 n258 vdd259 vdd259 pmos W=1u L=45n
Mn259 n259 n258 0 0 nmos W=0.5u L=45n
Rvdd260 vdd vdd260 1k
Mp260 n260 n259 vdd260 vdd260 pmos W=1u L=45n
Mn260 n260 n259 0 0 nmos W=0.5u L=45n
Rvdd261 vdd vdd261 1k
Mp261 n261 n260 vdd261 vdd261 pmos W=1u L=45n
Mn261 n261 n260 0 0 nmos W=0.5u L=45n
Rvdd262 vdd vdd262 1k
Mp262 n262 n261 vdd262 vdd262 pmos W=1u L=45n
Mn262 n262 n261 0 0 nmos W=0.5u L=45n
Rvdd263 vdd vdd263 1k
Mp263 n263 n262 vdd263 vdd263 pmos W=1u L=45n
Mn263 n263 n262 0 0 nmos W=0.5u L=45n
Rvdd264 vdd vdd264 1k
Mp264 n264 n263 vdd264 vdd264 pmos W=1u L=45n
Mn264 n264 n263 0 0 nmos W=0.5u L=45n
Rvdd265 vdd vdd265 1k
Mp265 n265 n264 vdd265 vdd265 pmos W=1u L=45n
Mn265 n265 n264 0 0 nmos W=0.5u L=45n
Rvdd266 vdd vdd266 1k
Mp266 n266 n265 vdd266 vdd266 pmos W=1u L=45n
Mn266 n266 n265 0 0 nmos W=0.5u L=45n
Rvdd267 vdd vdd267 1k
Mp267 n267 n266 vdd267 vdd267 pmos W=1u L=45n
Mn267 n267 n266 0 0 nmos W=0.5u L=45n
Rvdd268 vdd vdd268 1k
Mp268 n268 n267 vdd268 vdd268 pmos W=1u L=45n
Mn268 n268 n267 0 0 nmos W=0.5u L=45n
Rvdd269 vdd vdd269 1k
Mp269 n269 n268 vdd269 vdd269 pmos W=1u L=45n
Mn269 n269 n268 0 0 nmos W=0.5u L=45n
Rvdd270 vdd vdd270 1k
Mp270 n270 n269 vdd270 vdd270 pmos W=1u L=45n
Mn270 n270 n269 0 0 nmos W=0.5u L=45n
Rvdd271 vdd vdd271 1k
Mp271 n271 n270 vdd271 vdd271 pmos W=1u L=45n
Mn271 n271 n270 0 0 nmos W=0.5u L=45n
Rvdd272 vdd vdd272 1k
Mp272 n272 n271 vdd272 vdd272 pmos W=1u L=45n
Mn272 n272 n271 0 0 nmos W=0.5u L=45n
Rvdd273 vdd vdd273 1k
Mp273 n273 n272 vdd273 vdd273 pmos W=1u L=45n
Mn273 n273 n272 0 0 nmos W=0.5u L=45n
Rvdd274 vdd vdd274 1k
Mp274 n274 n273 vdd274 vdd274 pmos W=1u L=45n
Mn274 n274 n273 0 0 nmos W=0.5u L=45n
Rvdd275 vdd vdd275 1k
Mp275 n275 n274 vdd275 vdd275 pmos W=1u L=45n
Mn275 n275 n274 0 0 nmos W=0.5u L=45n
Rvdd276 vdd vdd276 1k
Mp276 n276 n275 vdd276 vdd276 pmos W=1u L=45n
Mn276 n276 n275 0 0 nmos W=0.5u L=45n
Rvdd277 vdd vdd277 1k
Mp277 n277 n276 vdd277 vdd277 pmos W=1u L=45n
Mn277 n277 n276 0 0 nmos W=0.5u L=45n
Rvdd278 vdd vdd278 1k
Mp278 n278 n277 vdd278 vdd278 pmos W=1u L=45n
Mn278 n278 n277 0 0 nmos W=0.5u L=45n
Rvdd279 vdd vdd279 1k
Mp279 n279 n278 vdd279 vdd279 pmos W=1u L=45n
Mn279 n279 n278 0 0 nmos W=0.5u L=45n
Rvdd280 vdd vdd280 1k
Mp280 n280 n279 vdd280 vdd280 pmos W=1u L=45n
Mn280 n280 n279 0 0 nmos W=0.5u L=45n
Rvdd281 vdd vdd281 1k