* 1000inv

* Models
.model nmos nmos (level=14 version=4.8.2)
.model pmos pmos (level=14 version=4.8.2)

* Simulation flags
.options acct
.options num_threads=8

V1 VDD 0 1.8
V2 Vin 0 1

R1 VDD N001 0.001
M1 N001 Vin N051 N001 pmos l=0.9u w=10u
M2 N051 Vin 0 0 nmos l=0.9u w=10u
R2 VDD N002 0.001
M3 N002 N051 N052 N002 pmos l=0.9u w=10u
M4 N052 N051 0 0 nmos l=0.9u w=10u
R3 VDD N003 0.001
M5 N003 N052 N053 N003 pmos l=0.9u w=10u
M6 N053 N052 0 0 nmos l=0.9u w=10u
R4 VDD N004 0.001
M7 N004 N053 N054 N004 pmos l=0.9u w=10u
M8 N054 N053 0 0 nmos l=0.9u w=10u
R5 VDD N005 0.001
M9 N005 N054 N055 N005 pmos l=0.9u w=10u
M10 N055 N054 0 0 nmos l=0.9u w=10u
R6 VDD N006 0.001
M11 N006 N055 N056 N006 pmos l=0.9u w=10u
M12 N056 N055 0 0 nmos l=0.9u w=10u
R7 VDD N007 0.001
M13 N007 N056 N057 N007 pmos l=0.9u w=10u
M14 N057 N056 0 0 nmos l=0.9u w=10u
R8 VDD N008 0.001
M15 N008 N057 N058 N008 pmos l=0.9u w=10u
M16 N058 N057 0 0 nmos l=0.9u w=10u
R9 VDD N009 0.001
M17 N009 N058 N059 N009 pmos l=0.9u w=10u
M18 N059 N058 0 0 nmos l=0.9u w=10u
R10 VDD N010 0.001
M19 N010 N059 N060 N010 pmos l=0.9u w=10u
M20 N060 N059 0 0 nmos l=0.9u w=10u
R11 VDD N011 0.001
M21 N011 N060 N061 N011 pmos l=0.9u w=10u
M22 N061 N060 0 0 nmos l=0.9u w=10u
R12 VDD N012 0.001
M23 N012 N061 N062 N012 pmos l=0.9u w=10u
M24 N062 N061 0 0 nmos l=0.9u w=10u
R13 VDD N013 0.001
M25 N013 N062 N063 N013 pmos l=0.9u w=10u
M26 N063 N062 0 0 nmos l=0.9u w=10u
R14 VDD N014 0.001
M27 N014 N063 N064 N014 pmos l=0.9u w=10u
M28 N064 N063 0 0 nmos l=0.9u w=10u
R15 VDD N015 0.001
M29 N015 N064 N065 N015 pmos l=0.9u w=10u
M30 N065 N064 0 0 nmos l=0.9u w=10u
R16 VDD N016 0.001
M31 N016 N065 N066 N016 pmos l=0.9u w=10u
M32 N066 N065 0 0 nmos l=0.9u w=10u
R17 VDD N017 0.001
M33 N017 N066 N067 N017 pmos l=0.9u w=10u
M34 N067 N066 0 0 nmos l=0.9u w=10u
R18 VDD N018 0.001
M35 N018 N067 N068 N018 pmos l=0.9u w=10u
M36 N068 N067 0 0 nmos l=0.9u w=10u
R19 VDD N019 0.001
M37 N019 N068 N069 N019 pmos l=0.9u w=10u
M38 N069 N068 0 0 nmos l=0.9u w=10u
R20 VDD N020 0.001
M39 N020 N069 N070 N020 pmos l=0.9u w=10u
M40 N070 N069 0 0 nmos l=0.9u w=10u
R21 VDD N021 0.001
M41 N021 N070 N071 N021 pmos l=0.9u w=10u
M42 N071 N070 0 0 nmos l=0.9u w=10u
R22 VDD N022 0.001
M43 N022 N071 N072 N022 pmos l=0.9u w=10u
M44 N072 N071 0 0 nmos l=0.9u w=10u
R23 VDD N023 0.001
M45 N023 N072 N073 N023 pmos l=0.9u w=10u
M46 N073 N072 0 0 nmos l=0.9u w=10u
R24 VDD N024 0.001
M47 N024 N073 N074 N024 pmos l=0.9u w=10u
M48 N074 N073 0 0 nmos l=0.9u w=10u
R25 VDD N025 0.001
M49 N025 N074 N075 N025 pmos l=0.9u w=10u
M50 N075 N074 0 0 nmos l=0.9u w=10u
R26 VDD N026 0.001
M51 N026 N075 N076 N026 pmos l=0.9u w=10u
M52 N076 N075 0 0 nmos l=0.9u w=10u
R27 VDD N027 0.001
M53 N027 N076 N077 N027 pmos l=0.9u w=10u
M54 N077 N076 0 0 nmos l=0.9u w=10u
R28 VDD N028 0.001
M55 N028 N077 N078 N028 pmos l=0.9u w=10u
M56 N078 N077 0 0 nmos l=0.9u w=10u
R29 VDD N029 0.001
M57 N029 N078 N079 N029 pmos l=0.9u w=10u
M58 N079 N078 0 0 nmos l=0.9u w=10u
R30 VDD N030 0.001
M59 N030 N079 N080 N030 pmos l=0.9u w=10u
M60 N080 N079 0 0 nmos l=0.9u w=10u
R31 VDD N031 0.001
M61 N031 N080 N081 N031 pmos l=0.9u w=10u
M62 N081 N080 0 0 nmos l=0.9u w=10u
R32 VDD N032 0.001
M63 N032 N081 N082 N032 pmos l=0.9u w=10u
M64 N082 N081 0 0 nmos l=0.9u w=10u
R33 VDD N033 0.001
M65 N033 N082 N083 N033 pmos l=0.9u w=10u
M66 N083 N082 0 0 nmos l=0.9u w=10u
R34 VDD N034 0.001
M67 N034 N083 N084 N034 pmos l=0.9u w=10u
M68 N084 N083 0 0 nmos l=0.9u w=10u
R35 VDD N035 0.001
M69 N035 N084 N085 N035 pmos l=0.9u w=10u
M70 N085 N084 0 0 nmos l=0.9u w=10u
R36 VDD N036 0.001
M71 N036 N085 N086 N036 pmos l=0.9u w=10u
M72 N086 N085 0 0 nmos l=0.9u w=10u
R37 VDD N037 0.001
M73 N037 N086 N087 N037 pmos l=0.9u w=10u
M74 N087 N086 0 0 nmos l=0.9u w=10u
R38 VDD N038 0.001
M75 N038 N087 N088 N038 pmos l=0.9u w=10u
M76 N088 N087 0 0 nmos l=0.9u w=10u
R39 VDD N039 0.001
M77 N039 N088 N089 N039 pmos l=0.9u w=10u
M78 N089 N088 0 0 nmos l=0.9u w=10u
R40 VDD N040 0.001
M79 N040 N089 N090 N040 pmos l=0.9u w=10u
M80 N090 N089 0 0 nmos l=0.9u w=10u
R41 VDD N041 0.001
M81 N041 N090 N091 N041 pmos l=0.9u w=10u
M82 N091 N090 0 0 nmos l=0.9u w=10u
R42 VDD N042 0.001
M83 N042 N091 N092 N042 pmos l=0.9u w=10u
M84 N092 N091 0 0 nmos l=0.9u w=10u
R43 VDD N043 0.001
M85 N043 N092 N093 N043 pmos l=0.9u w=10u
M86 N093 N092 0 0 nmos l=0.9u w=10u
R44 VDD N044 0.001
M87 N044 N093 N094 N044 pmos l=0.9u w=10u
M88 N094 N093 0 0 nmos l=0.9u w=10u
R45 VDD N045 0.001
M89 N045 N094 N095 N045 pmos l=0.9u w=10u
M90 N095 N094 0 0 nmos l=0.9u w=10u
R46 VDD N046 0.001
M91 N046 N095 N096 N046 pmos l=0.9u w=10u
M92 N096 N095 0 0 nmos l=0.9u w=10u
R47 VDD N047 0.001
M93 N047 N096 N097 N047 pmos l=0.9u w=10u
M94 N097 N096 0 0 nmos l=0.9u w=10u
R48 VDD N048 0.001
M95 N048 N097 N098 N048 pmos l=0.9u w=10u
M96 N098 N097 0 0 nmos l=0.9u w=10u
R49 VDD N049 0.001
M97 N049 N098 N099 N049 pmos l=0.9u w=10u
M98 N099 N098 0 0 nmos l=0.9u w=10u
R50 VDD N050 0.001
M99 N050 N099 vout1 N050 pmos l=0.9u w=10u
M100 vout1 N099 0 0 nmos l=0.9u w=10u
R51 VDD N100 0.001
M101 N100 vout1 N150 N100 pmos l=0.9u w=10u
M102 N150 vout1 0 0 nmos l=0.9u w=10u
R52 VDD N101 0.001
M103 N101 N150 N151 N101 pmos l=0.9u w=10u
M104 N151 N150 0 0 nmos l=0.9u w=10u
R53 VDD N102 0.001
M105 N102 N151 N152 N102 pmos l=0.9u w=10u
M106 N152 N151 0 0 nmos l=0.9u w=10u
R54 VDD N103 0.001
M107 N103 N152 N153 N103 pmos l=0.9u w=10u
M108 N153 N152 0 0 nmos l=0.9u w=10u
R55 VDD N104 0.001
M109 N104 N153 N154 N104 pmos l=0.9u w=10u
M110 N154 N153 0 0 nmos l=0.9u w=10u
R56 VDD N105 0.001
M111 N105 N154 N155 N105 pmos l=0.9u w=10u
M112 N155 N154 0 0 nmos l=0.9u w=10u
R57 VDD N106 0.001
M113 N106 N155 N156 N106 pmos l=0.9u w=10u
M114 N156 N155 0 0 nmos l=0.9u w=10u
R58 VDD N107 0.001
M115 N107 N156 N157 N107 pmos l=0.9u w=10u
M116 N157 N156 0 0 nmos l=0.9u w=10u
R59 VDD N108 0.001
M117 N108 N157 N158 N108 pmos l=0.9u w=10u
M118 N158 N157 0 0 nmos l=0.9u w=10u
R60 VDD N109 0.001
M119 N109 N158 N159 N109 pmos l=0.9u w=10u
M120 N159 N158 0 0 nmos l=0.9u w=10u
R61 VDD N110 0.001
M121 N110 N159 N160 N110 pmos l=0.9u w=10u
M122 N160 N159 0 0 nmos l=0.9u w=10u
R62 VDD N111 0.001
M123 N111 N160 N161 N111 pmos l=0.9u w=10u
M124 N161 N160 0 0 nmos l=0.9u w=10u
R63 VDD N112 0.001
M125 N112 N161 N162 N112 pmos l=0.9u w=10u
M126 N162 N161 0 0 nmos l=0.9u w=10u
R64 VDD N113 0.001
M127 N113 N162 N163 N113 pmos l=0.9u w=10u
M128 N163 N162 0 0 nmos l=0.9u w=10u
R65 VDD N114 0.001
M129 N114 N163 N164 N114 pmos l=0.9u w=10u
M130 N164 N163 0 0 nmos l=0.9u w=10u
R66 VDD N115 0.001
M131 N115 N164 N165 N115 pmos l=0.9u w=10u
M132 N165 N164 0 0 nmos l=0.9u w=10u
R67 VDD N116 0.001
M133 N116 N165 N166 N116 pmos l=0.9u w=10u
M134 N166 N165 0 0 nmos l=0.9u w=10u
R68 VDD N117 0.001
M135 N117 N166 N167 N117 pmos l=0.9u w=10u
M136 N167 N166 0 0 nmos l=0.9u w=10u
R69 VDD N118 0.001
M137 N118 N167 N168 N118 pmos l=0.9u w=10u
M138 N168 N167 0 0 nmos l=0.9u w=10u
R70 VDD N119 0.001
M139 N119 N168 N169 N119 pmos l=0.9u w=10u
M140 N169 N168 0 0 nmos l=0.9u w=10u
R71 VDD N120 0.001
M141 N120 N169 N170 N120 pmos l=0.9u w=10u
M142 N170 N169 0 0 nmos l=0.9u w=10u
R72 VDD N121 0.001
M143 N121 N170 N171 N121 pmos l=0.9u w=10u
M144 N171 N170 0 0 nmos l=0.9u w=10u
R73 VDD N122 0.001
M145 N122 N171 N172 N122 pmos l=0.9u w=10u
M146 N172 N171 0 0 nmos l=0.9u w=10u
R74 VDD N123 0.001
M147 N123 N172 N173 N123 pmos l=0.9u w=10u
M148 N173 N172 0 0 nmos l=0.9u w=10u
R75 VDD N124 0.001
M149 N124 N173 N174 N124 pmos l=0.9u w=10u
M150 N174 N173 0 0 nmos l=0.9u w=10u
R76 VDD N125 0.001
M151 N125 N174 N175 N125 pmos l=0.9u w=10u
M152 N175 N174 0 0 nmos l=0.9u w=10u
R77 VDD N126 0.001
M153 N126 N175 N176 N126 pmos l=0.9u w=10u
M154 N176 N175 0 0 nmos l=0.9u w=10u
R78 VDD N127 0.001
M155 N127 N176 N177 N127 pmos l=0.9u w=10u
M156 N177 N176 0 0 nmos l=0.9u w=10u
R79 VDD N128 0.001
M157 N128 N177 N178 N128 pmos l=0.9u w=10u
M158 N178 N177 0 0 nmos l=0.9u w=10u
R80 VDD N129 0.001
M159 N129 N178 N179 N129 pmos l=0.9u w=10u
M160 N179 N178 0 0 nmos l=0.9u w=10u
R81 VDD N130 0.001
M161 N130 N179 N180 N130 pmos l=0.9u w=10u
M162 N180 N179 0 0 nmos l=0.9u w=10u
R82 VDD N131 0.001
M163 N131 N180 N181 N131 pmos l=0.9u w=10u
M164 N181 N180 0 0 nmos l=0.9u w=10u
R83 VDD N132 0.001
M165 N132 N181 N182 N132 pmos l=0.9u w=10u
M166 N182 N181 0 0 nmos l=0.9u w=10u
R84 VDD N133 0.001
M167 N133 N182 N183 N133 pmos l=0.9u w=10u
M168 N183 N182 0 0 nmos l=0.9u w=10u
R85 VDD N134 0.001
M169 N134 N183 N184 N134 pmos l=0.9u w=10u
M170 N184 N183 0 0 nmos l=0.9u w=10u
R86 VDD N135 0.001
M171 N135 N184 N185 N135 pmos l=0.9u w=10u
M172 N185 N184 0 0 nmos l=0.9u w=10u
R87 VDD N136 0.001
M173 N136 N185 N186 N136 pmos l=0.9u w=10u
M174 N186 N185 0 0 nmos l=0.9u w=10u
R88 VDD N137 0.001
M175 N137 N186 N187 N137 pmos l=0.9u w=10u
M176 N187 N186 0 0 nmos l=0.9u w=10u
R89 VDD N138 0.001
M177 N138 N187 N188 N138 pmos l=0.9u w=10u
M178 N188 N187 0 0 nmos l=0.9u w=10u
R90 VDD N139 0.001
M179 N139 N188 N189 N139 pmos l=0.9u w=10u
M180 N189 N188 0 0 nmos l=0.9u w=10u
R91 VDD N140 0.001
M181 N140 N189 N190 N140 pmos l=0.9u w=10u
M182 N190 N189 0 0 nmos l=0.9u w=10u
R92 VDD N141 0.001
M183 N141 N190 N191 N141 pmos l=0.9u w=10u
M184 N191 N190 0 0 nmos l=0.9u w=10u
R93 VDD N142 0.001
M185 N142 N191 N192 N142 pmos l=0.9u w=10u
M186 N192 N191 0 0 nmos l=0.9u w=10u
R94 VDD N143 0.001
M187 N143 N192 N193 N143 pmos l=0.9u w=10u
M188 N193 N192 0 0 nmos l=0.9u w=10u
R95 VDD N144 0.001
M189 N144 N193 N194 N144 pmos l=0.9u w=10u
M190 N194 N193 0 0 nmos l=0.9u w=10u
R96 VDD N145 0.001
M191 N145 N194 N195 N145 pmos l=0.9u w=10u
M192 N195 N194 0 0 nmos l=0.9u w=10u
R97 VDD N146 0.001
M193 N146 N195 N196 N146 pmos l=0.9u w=10u
M194 N196 N195 0 0 nmos l=0.9u w=10u
R98 VDD N147 0.001
M195 N147 N196 N197 N147 pmos l=0.9u w=10u
M196 N197 N196 0 0 nmos l=0.9u w=10u
R99 VDD N148 0.001
M197 N148 N197 N198 N148 pmos l=0.9u w=10u
M198 N198 N197 0 0 nmos l=0.9u w=10u
R100 VDD N149 0.001
M199 N149 N198 vout2 N149 pmos l=0.9u w=10u
M200 vout2 N198 0 0 nmos l=0.9u w=10u
R101 VDD N199 0.001
M201 N199 vout2 N249 N199 pmos l=0.9u w=10u
M202 N249 vout2 0 0 nmos l=0.9u w=10u
R102 VDD N200 0.001
M203 N200 N249 N250 N200 pmos l=0.9u w=10u
M204 N250 N249 0 0 nmos l=0.9u w=10u
R103 VDD N201 0.001
M205 N201 N250 N251 N201 pmos l=0.9u w=10u
M206 N251 N250 0 0 nmos l=0.9u w=10u
R104 VDD N202 0.001
M207 N202 N251 N252 N202 pmos l=0.9u w=10u
M208 N252 N251 0 0 nmos l=0.9u w=10u
R105 VDD N203 0.001
M209 N203 N252 N253 N203 pmos l=0.9u w=10u
M210 N253 N252 0 0 nmos l=0.9u w=10u
R106 VDD N204 0.001
M211 N204 N253 N254 N204 pmos l=0.9u w=10u
M212 N254 N253 0 0 nmos l=0.9u w=10u
R107 VDD N205 0.001
M213 N205 N254 N255 N205 pmos l=0.9u w=10u
M214 N255 N254 0 0 nmos l=0.9u w=10u
R108 VDD N206 0.001
M215 N206 N255 N256 N206 pmos l=0.9u w=10u
M216 N256 N255 0 0 nmos l=0.9u w=10u
R109 VDD N207 0.001
M217 N207 N256 N257 N207 pmos l=0.9u w=10u
M218 N257 N256 0 0 nmos l=0.9u w=10u
R110 VDD N208 0.001
M219 N208 N257 N258 N208 pmos l=0.9u w=10u
M220 N258 N257 0 0 nmos l=0.9u w=10u
R111 VDD N209 0.001
M221 N209 N258 N259 N209 pmos l=0.9u w=10u
M222 N259 N258 0 0 nmos l=0.9u w=10u
R112 VDD N210 0.001
M223 N210 N259 N260 N210 pmos l=0.9u w=10u
M224 N260 N259 0 0 nmos l=0.9u w=10u
R113 VDD N211 0.001
M225 N211 N260 N261 N211 pmos l=0.9u w=10u
M226 N261 N260 0 0 nmos l=0.9u w=10u
R114 VDD N212 0.001
M227 N212 N261 N262 N212 pmos l=0.9u w=10u
M228 N262 N261 0 0 nmos l=0.9u w=10u
R115 VDD N213 0.001
M229 N213 N262 N263 N213 pmos l=0.9u w=10u
M230 N263 N262 0 0 nmos l=0.9u w=10u
R116 VDD N214 0.001
M231 N214 N263 N264 N214 pmos l=0.9u w=10u
M232 N264 N263 0 0 nmos l=0.9u w=10u
R117 VDD N215 0.001
M233 N215 N264 N265 N215 pmos l=0.9u w=10u
M234 N265 N264 0 0 nmos l=0.9u w=10u
R118 VDD N216 0.001
M235 N216 N265 N266 N216 pmos l=0.9u w=10u
M236 N266 N265 0 0 nmos l=0.9u w=10u
R119 VDD N217 0.001
M237 N217 N266 N267 N217 pmos l=0.9u w=10u
M238 N267 N266 0 0 nmos l=0.9u w=10u
R120 VDD N218 0.001
M239 N218 N267 N268 N218 pmos l=0.9u w=10u
M240 N268 N267 0 0 nmos l=0.9u w=10u
R121 VDD N219 0.001
M241 N219 N268 N269 N219 pmos l=0.9u w=10u
M242 N269 N268 0 0 nmos l=0.9u w=10u
R122 VDD N220 0.001
M243 N220 N269 N270 N220 pmos l=0.9u w=10u
M244 N270 N269 0 0 nmos l=0.9u w=10u
R123 VDD N221 0.001
M245 N221 N270 N271 N221 pmos l=0.9u w=10u
M246 N271 N270 0 0 nmos l=0.9u w=10u
R124 VDD N222 0.001
M247 N222 N271 N272 N222 pmos l=0.9u w=10u
M248 N272 N271 0 0 nmos l=0.9u w=10u
R125 VDD N223 0.001
M249 N223 N272 N273 N223 pmos l=0.9u w=10u
M250 N273 N272 0 0 nmos l=0.9u w=10u
R126 VDD N224 0.001
M251 N224 N273 N274 N224 pmos l=0.9u w=10u
M252 N274 N273 0 0 nmos l=0.9u w=10u
R127 VDD N225 0.001
M253 N225 N274 N275 N225 pmos l=0.9u w=10u
M254 N275 N274 0 0 nmos l=0.9u w=10u
R128 VDD N226 0.001
M255 N226 N275 N276 N226 pmos l=0.9u w=10u
M256 N276 N275 0 0 nmos l=0.9u w=10u
R129 VDD N227 0.001
M257 N227 N276 N277 N227 pmos l=0.9u w=10u
M258 N277 N276 0 0 nmos l=0.9u w=10u
R130 VDD N228 0.001
M259 N228 N277 N278 N228 pmos l=0.9u w=10u
M260 N278 N277 0 0 nmos l=0.9u w=10u
R131 VDD N229 0.001
M261 N229 N278 N279 N229 pmos l=0.9u w=10u
M262 N279 N278 0 0 nmos l=0.9u w=10u
R132 VDD N230 0.001
M263 N230 N279 N280 N230 pmos l=0.9u w=10u
M264 N280 N279 0 0 nmos l=0.9u w=10u
R133 VDD N231 0.001
M265 N231 N280 N281 N231 pmos l=0.9u w=10u
M266 N281 N280 0 0 nmos l=0.9u w=10u
R134 VDD N232 0.001
M267 N232 N281 N282 N232 pmos l=0.9u w=10u
M268 N282 N281 0 0 nmos l=0.9u w=10u
R135 VDD N233 0.001
M269 N233 N282 N283 N233 pmos l=0.9u w=10u
M270 N283 N282 0 0 nmos l=0.9u w=10u
R136 VDD N234 0.001
M271 N234 N283 N284 N234 pmos l=0.9u w=10u
M272 N284 N283 0 0 nmos l=0.9u w=10u
R137 VDD N235 0.001
M273 N235 N284 N285 N235 pmos l=0.9u w=10u
M274 N285 N284 0 0 nmos l=0.9u w=10u
R138 VDD N236 0.001
M275 N236 N285 N286 N236 pmos l=0.9u w=10u
M276 N286 N285 0 0 nmos l=0.9u w=10u
R139 VDD N237 0.001
M277 N237 N286 N287 N237 pmos l=0.9u w=10u
M278 N287 N286 0 0 nmos l=0.9u w=10u
R140 VDD N238 0.001
M279 N238 N287 N288 N238 pmos l=0.9u w=10u
M280 N288 N287 0 0 nmos l=0.9u w=10u
R141 VDD N239 0.001
M281 N239 N288 N289 N239 pmos l=0.9u w=10u
M282 N289 N288 0 0 nmos l=0.9u w=10u
R142 VDD N240 0.001
M283 N240 N289 N290 N240 pmos l=0.9u w=10u
M284 N290 N289 0 0 nmos l=0.9u w=10u
R143 VDD N241 0.001
M285 N241 N290 N291 N241 pmos l=0.9u w=10u
M286 N291 N290 0 0 nmos l=0.9u w=10u
R144 VDD N242 0.001
M287 N242 N291 N292 N242 pmos l=0.9u w=10u
M288 N292 N291 0 0 nmos l=0.9u w=10u
R145 VDD N243 0.001
M289 N243 N292 N293 N243 pmos l=0.9u w=10u
M290 N293 N292 0 0 nmos l=0.9u w=10u
R146 VDD N244 0.001
M291 N244 N293 N294 N244 pmos l=0.9u w=10u
M292 N294 N293 0 0 nmos l=0.9u w=10u
R147 VDD N245 0.001
M293 N245 N294 N295 N245 pmos l=0.9u w=10u
M294 N295 N294 0 0 nmos l=0.9u w=10u
R148 VDD N246 0.001
M295 N246 N295 N296 N246 pmos l=0.9u w=10u
M296 N296 N295 0 0 nmos l=0.9u w=10u
R149 VDD N247 0.001
M297 N247 N296 N297 N247 pmos l=0.9u w=10u
M298 N297 N296 0 0 nmos l=0.9u w=10u
R150 VDD N248 0.001
M299 N248 N297 vout3 N248 pmos l=0.9u w=10u
M300 vout3 N297 0 0 nmos l=0.9u w=10u
R151 VDD N298 0.001
M301 N298 vout3 N348 N298 pmos l=0.9u w=10u
M302 N348 vout3 0 0 nmos l=0.9u w=10u
R152 VDD N299 0.001
M303 N299 N348 N349 N299 pmos l=0.9u w=10u
M304 N349 N348 0 0 nmos l=0.9u w=10u
R153 VDD N300 0.001
M305 N300 N349 N350 N300 pmos l=0.9u w=10u
M306 N350 N349 0 0 nmos l=0.9u w=10u
R154 VDD N301 0.001
M307 N301 N350 N351 N301 pmos l=0.9u w=10u
M308 N351 N350 0 0 nmos l=0.9u w=10u
R155 VDD N302 0.001
M309 N302 N351 N352 N302 pmos l=0.9u w=10u
M310 N352 N351 0 0 nmos l=0.9u w=10u
R156 VDD N303 0.001
M311 N303 N352 N353 N303 pmos l=0.9u w=10u
M312 N353 N352 0 0 nmos l=0.9u w=10u
R157 VDD N304 0.001
M313 N304 N353 N354 N304 pmos l=0.9u w=10u
M314 N354 N353 0 0 nmos l=0.9u w=10u
R158 VDD N305 0.001
M315 N305 N354 N355 N305 pmos l=0.9u w=10u
M316 N355 N354 0 0 nmos l=0.9u w=10u
R159 VDD N306 0.001
M317 N306 N355 N356 N306 pmos l=0.9u w=10u
M318 N356 N355 0 0 nmos l=0.9u w=10u
R160 VDD N307 0.001
M319 N307 N356 N357 N307 pmos l=0.9u w=10u
M320 N357 N356 0 0 nmos l=0.9u w=10u
R161 VDD N308 0.001
M321 N308 N357 N358 N308 pmos l=0.9u w=10u
M322 N358 N357 0 0 nmos l=0.9u w=10u
R162 VDD N309 0.001
M323 N309 N358 N359 N309 pmos l=0.9u w=10u
M324 N359 N358 0 0 nmos l=0.9u w=10u
R163 VDD N310 0.001
M325 N310 N359 N360 N310 pmos l=0.9u w=10u
M326 N360 N359 0 0 nmos l=0.9u w=10u
R164 VDD N311 0.001
M327 N311 N360 N361 N311 pmos l=0.9u w=10u
M328 N361 N360 0 0 nmos l=0.9u w=10u
R165 VDD N312 0.001
M329 N312 N361 N362 N312 pmos l=0.9u w=10u
M330 N362 N361 0 0 nmos l=0.9u w=10u
R166 VDD N313 0.001
M331 N313 N362 N363 N313 pmos l=0.9u w=10u
M332 N363 N362 0 0 nmos l=0.9u w=10u
R167 VDD N314 0.001
M333 N314 N363 N364 N314 pmos l=0.9u w=10u
M334 N364 N363 0 0 nmos l=0.9u w=10u
R168 VDD N315 0.001
M335 N315 N364 N365 N315 pmos l=0.9u w=10u
M336 N365 N364 0 0 nmos l=0.9u w=10u
R169 VDD N316 0.001
M337 N316 N365 N366 N316 pmos l=0.9u w=10u
M338 N366 N365 0 0 nmos l=0.9u w=10u
R170 VDD N317 0.001
M339 N317 N366 N367 N317 pmos l=0.9u w=10u
M340 N367 N366 0 0 nmos l=0.9u w=10u
R171 VDD N318 0.001
M341 N318 N367 N368 N318 pmos l=0.9u w=10u
M342 N368 N367 0 0 nmos l=0.9u w=10u
R172 VDD N319 0.001
M343 N319 N368 N369 N319 pmos l=0.9u w=10u
M344 N369 N368 0 0 nmos l=0.9u w=10u
R173 VDD N320 0.001
M345 N320 N369 N370 N320 pmos l=0.9u w=10u
M346 N370 N369 0 0 nmos l=0.9u w=10u
R174 VDD N321 0.001
M347 N321 N370 N371 N321 pmos l=0.9u w=10u
M348 N371 N370 0 0 nmos l=0.9u w=10u
R175 VDD N322 0.001
M349 N322 N371 N372 N322 pmos l=0.9u w=10u
M350 N372 N371 0 0 nmos l=0.9u w=10u
R176 VDD N323 0.001
M351 N323 N372 N373 N323 pmos l=0.9u w=10u
M352 N373 N372 0 0 nmos l=0.9u w=10u
R177 VDD N324 0.001
M353 N324 N373 N374 N324 pmos l=0.9u w=10u
M354 N374 N373 0 0 nmos l=0.9u w=10u
R178 VDD N325 0.001
M355 N325 N374 N375 N325 pmos l=0.9u w=10u
M356 N375 N374 0 0 nmos l=0.9u w=10u
R179 VDD N326 0.001
M357 N326 N375 N376 N326 pmos l=0.9u w=10u
M358 N376 N375 0 0 nmos l=0.9u w=10u
R180 VDD N327 0.001
M359 N327 N376 N377 N327 pmos l=0.9u w=10u
M360 N377 N376 0 0 nmos l=0.9u w=10u
R181 VDD N328 0.001
M361 N328 N377 N378 N328 pmos l=0.9u w=10u
M362 N378 N377 0 0 nmos l=0.9u w=10u
R182 VDD N329 0.001
M363 N329 N378 N379 N329 pmos l=0.9u w=10u
M364 N379 N378 0 0 nmos l=0.9u w=10u
R183 VDD N330 0.001
M365 N330 N379 N380 N330 pmos l=0.9u w=10u
M366 N380 N379 0 0 nmos l=0.9u w=10u
R184 VDD N331 0.001
M367 N331 N380 N381 N331 pmos l=0.9u w=10u
M368 N381 N380 0 0 nmos l=0.9u w=10u
R185 VDD N332 0.001
M369 N332 N381 N382 N332 pmos l=0.9u w=10u
M370 N382 N381 0 0 nmos l=0.9u w=10u
R186 VDD N333 0.001
M371 N333 N382 N383 N333 pmos l=0.9u w=10u
M372 N383 N382 0 0 nmos l=0.9u w=10u
R187 VDD N334 0.001
M373 N334 N383 N384 N334 pmos l=0.9u w=10u
M374 N384 N383 0 0 nmos l=0.9u w=10u
R188 VDD N335 0.001
M375 N335 N384 N385 N335 pmos l=0.9u w=10u
M376 N385 N384 0 0 nmos l=0.9u w=10u
R189 VDD N336 0.001
M377 N336 N385 N386 N336 pmos l=0.9u w=10u
M378 N386 N385 0 0 nmos l=0.9u w=10u
R190 VDD N337 0.001
M379 N337 N386 N387 N337 pmos l=0.9u w=10u
M380 N387 N386 0 0 nmos l=0.9u w=10u
R191 VDD N338 0.001
M381 N338 N387 N388 N338 pmos l=0.9u w=10u
M382 N388 N387 0 0 nmos l=0.9u w=10u
R192 VDD N339 0.001
M383 N339 N388 N389 N339 pmos l=0.9u w=10u
M384 N389 N388 0 0 nmos l=0.9u w=10u
R193 VDD N340 0.001
M385 N340 N389 N390 N340 pmos l=0.9u w=10u
M386 N390 N389 0 0 nmos l=0.9u w=10u
R194 VDD N341 0.001
M387 N341 N390 N391 N341 pmos l=0.9u w=10u
M388 N391 N390 0 0 nmos l=0.9u w=10u
R195 VDD N342 0.001
M389 N342 N391 N392 N342 pmos l=0.9u w=10u
M390 N392 N391 0 0 nmos l=0.9u w=10u
R196 VDD N343 0.001
M391 N343 N392 N393 N343 pmos l=0.9u w=10u
M392 N393 N392 0 0 nmos l=0.9u w=10u
R197 VDD N344 0.001
M393 N344 N393 N394 N344 pmos l=0.9u w=10u
M394 N394 N393 0 0 nmos l=0.9u w=10u
R198 VDD N345 0.001
M395 N345 N394 N395 N345 pmos l=0.9u w=10u
M396 N395 N394 0 0 nmos l=0.9u w=10u
R199 VDD N346 0.001
M397 N346 N395 N396 N346 pmos l=0.9u w=10u
M398 N396 N395 0 0 nmos l=0.9u w=10u
R200 VDD N347 0.001
M399 N347 N396 vout4 N347 pmos l=0.9u w=10u
M400 vout4 N396 0 0 nmos l=0.9u w=10u
R201 VDD N397 0.001
M401 N397 vout4 N447 N397 pmos l=0.9u w=10u
M402 N447 vout4 0 0 nmos l=0.9u w=10u
R202 VDD N398 0.001
M403 N398 N447 N448 N398 pmos l=0.9u w=10u
M404 N448 N447 0 0 nmos l=0.9u w=10u
R203 VDD N399 0.001
M405 N399 N448 N449 N399 pmos l=0.9u w=10u
M406 N449 N448 0 0 nmos l=0.9u w=10u
R204 VDD N400 0.001
M407 N400 N449 N450 N400 pmos l=0.9u w=10u
M408 N450 N449 0 0 nmos l=0.9u w=10u
R205 VDD N401 0.001
M409 N401 N450 N451 N401 pmos l=0.9u w=10u
M410 N451 N450 0 0 nmos l=0.9u w=10u
R206 VDD N402 0.001
M411 N402 N451 N452 N402 pmos l=0.9u w=10u
M412 N452 N451 0 0 nmos l=0.9u w=10u
R207 VDD N403 0.001
M413 N403 N452 N453 N403 pmos l=0.9u w=10u
M414 N453 N452 0 0 nmos l=0.9u w=10u
R208 VDD N404 0.001
M415 N404 N453 N454 N404 pmos l=0.9u w=10u
M416 N454 N453 0 0 nmos l=0.9u w=10u
R209 VDD N405 0.001
M417 N405 N454 N455 N405 pmos l=0.9u w=10u
M418 N455 N454 0 0 nmos l=0.9u w=10u
R210 VDD N406 0.001
M419 N406 N455 N456 N406 pmos l=0.9u w=10u
M420 N456 N455 0 0 nmos l=0.9u w=10u
R211 VDD N407 0.001
M421 N407 N456 N457 N407 pmos l=0.9u w=10u
M422 N457 N456 0 0 nmos l=0.9u w=10u
R212 VDD N408 0.001
M423 N408 N457 N458 N408 pmos l=0.9u w=10u
M424 N458 N457 0 0 nmos l=0.9u w=10u
R213 VDD N409 0.001
M425 N409 N458 N459 N409 pmos l=0.9u w=10u
M426 N459 N458 0 0 nmos l=0.9u w=10u
R214 VDD N410 0.001
M427 N410 N459 N460 N410 pmos l=0.9u w=10u
M428 N460 N459 0 0 nmos l=0.9u w=10u
R215 VDD N411 0.001
M429 N411 N460 N461 N411 pmos l=0.9u w=10u
M430 N461 N460 0 0 nmos l=0.9u w=10u
R216 VDD N412 0.001
M431 N412 N461 N462 N412 pmos l=0.9u w=10u
M432 N462 N461 0 0 nmos l=0.9u w=10u
R217 VDD N413 0.001
M433 N413 N462 N463 N413 pmos l=0.9u w=10u
M434 N463 N462 0 0 nmos l=0.9u w=10u
R218 VDD N414 0.001
M435 N414 N463 N464 N414 pmos l=0.9u w=10u
M436 N464 N463 0 0 nmos l=0.9u w=10u
R219 VDD N415 0.001
M437 N415 N464 N465 N415 pmos l=0.9u w=10u
M438 N465 N464 0 0 nmos l=0.9u w=10u
R220 VDD N416 0.001
M439 N416 N465 N466 N416 pmos l=0.9u w=10u
M440 N466 N465 0 0 nmos l=0.9u w=10u
R221 VDD N417 0.001
M441 N417 N466 N467 N417 pmos l=0.9u w=10u
M442 N467 N466 0 0 nmos l=0.9u w=10u
R222 VDD N418 0.001
M443 N418 N467 N468 N418 pmos l=0.9u w=10u
M444 N468 N467 0 0 nmos l=0.9u w=10u
R223 VDD N419 0.001
M445 N419 N468 N469 N419 pmos l=0.9u w=10u
M446 N469 N468 0 0 nmos l=0.9u w=10u
R224 VDD N420 0.001
M447 N420 N469 N470 N420 pmos l=0.9u w=10u
M448 N470 N469 0 0 nmos l=0.9u w=10u
R225 VDD N421 0.001
M449 N421 N470 N471 N421 pmos l=0.9u w=10u
M450 N471 N470 0 0 nmos l=0.9u w=10u
R226 VDD N422 0.001
M451 N422 N471 N472 N422 pmos l=0.9u w=10u
M452 N472 N471 0 0 nmos l=0.9u w=10u
R227 VDD N423 0.001
M453 N423 N472 N473 N423 pmos l=0.9u w=10u
M454 N473 N472 0 0 nmos l=0.9u w=10u
R228 VDD N424 0.001
M455 N424 N473 N474 N424 pmos l=0.9u w=10u
M456 N474 N473 0 0 nmos l=0.9u w=10u
R229 VDD N425 0.001
M457 N425 N474 N475 N425 pmos l=0.9u w=10u
M458 N475 N474 0 0 nmos l=0.9u w=10u
R230 VDD N426 0.001
M459 N426 N475 N476 N426 pmos l=0.9u w=10u
M460 N476 N475 0 0 nmos l=0.9u w=10u
R231 VDD N427 0.001
M461 N427 N476 N477 N427 pmos l=0.9u w=10u
M462 N477 N476 0 0 nmos l=0.9u w=10u
R232 VDD N428 0.001
M463 N428 N477 N478 N428 pmos l=0.9u w=10u
M464 N478 N477 0 0 nmos l=0.9u w=10u
R233 VDD N429 0.001
M465 N429 N478 N479 N429 pmos l=0.9u w=10u
M466 N479 N478 0 0 nmos l=0.9u w=10u
R234 VDD N430 0.001
M467 N430 N479 N480 N430 pmos l=0.9u w=10u
M468 N480 N479 0 0 nmos l=0.9u w=10u
R235 VDD N431 0.001
M469 N431 N480 N481 N431 pmos l=0.9u w=10u
M470 N481 N480 0 0 nmos l=0.9u w=10u
R236 VDD N432 0.001
M471 N432 N481 N482 N432 pmos l=0.9u w=10u
M472 N482 N481 0 0 nmos l=0.9u w=10u
R237 VDD N433 0.001
M473 N433 N482 N483 N433 pmos l=0.9u w=10u
M474 N483 N482 0 0 nmos l=0.9u w=10u
R238 VDD N434 0.001
M475 N434 N483 N484 N434 pmos l=0.9u w=10u
M476 N484 N483 0 0 nmos l=0.9u w=10u
R239 VDD N435 0.001
M477 N435 N484 N485 N435 pmos l=0.9u w=10u
M478 N485 N484 0 0 nmos l=0.9u w=10u
R240 VDD N436 0.001
M479 N436 N485 N486 N436 pmos l=0.9u w=10u
M480 N486 N485 0 0 nmos l=0.9u w=10u
R241 VDD N437 0.001
M481 N437 N486 N487 N437 pmos l=0.9u w=10u
M482 N487 N486 0 0 nmos l=0.9u w=10u
R242 VDD N438 0.001
M483 N438 N487 N488 N438 pmos l=0.9u w=10u
M484 N488 N487 0 0 nmos l=0.9u w=10u
R243 VDD N439 0.001
M485 N439 N488 N489 N439 pmos l=0.9u w=10u
M486 N489 N488 0 0 nmos l=0.9u w=10u
R244 VDD N440 0.001
M487 N440 N489 N490 N440 pmos l=0.9u w=10u
M488 N490 N489 0 0 nmos l=0.9u w=10u
R245 VDD N441 0.001
M489 N441 N490 N491 N441 pmos l=0.9u w=10u
M490 N491 N490 0 0 nmos l=0.9u w=10u
R246 VDD N442 0.001
M491 N442 N491 N492 N442 pmos l=0.9u w=10u
M492 N492 N491 0 0 nmos l=0.9u w=10u
R247 VDD N443 0.001
M493 N443 N492 N493 N443 pmos l=0.9u w=10u
M494 N493 N492 0 0 nmos l=0.9u w=10u
R248 VDD N444 0.001
M495 N444 N493 N494 N444 pmos l=0.9u w=10u
M496 N494 N493 0 0 nmos l=0.9u w=10u
R249 VDD N445 0.001
M497 N445 N494 N495 N445 pmos l=0.9u w=10u
M498 N495 N494 0 0 nmos l=0.9u w=10u
R250 VDD N446 0.001
M499 N446 N495 vout5 N446 pmos l=0.9u w=10u
M500 vout5 N495 0 0 nmos l=0.9u w=10u
R251 VDD N496 0.001
M501 N496 vout5 N546 N496 pmos l=0.9u w=10u
M502 N546 vout5 0 0 nmos l=0.9u w=10u
R252 VDD N497 0.001
M503 N497 N546 N547 N497 pmos l=0.9u w=10u
M504 N547 N546 0 0 nmos l=0.9u w=10u
R253 VDD N498 0.001
M505 N498 N547 N548 N498 pmos l=0.9u w=10u
M506 N548 N547 0 0 nmos l=0.9u w=10u
R254 VDD N499 0.001
M507 N499 N548 N549 N499 pmos l=0.9u w=10u
M508 N549 N548 0 0 nmos l=0.9u w=10u
R255 VDD N500 0.001
M509 N500 N549 N550 N500 pmos l=0.9u w=10u
M510 N550 N549 0 0 nmos l=0.9u w=10u
R256 VDD N501 0.001
M511 N501 N550 N551 N501 pmos l=0.9u w=10u
M512 N551 N550 0 0 nmos l=0.9u w=10u
R257 VDD N502 0.001
M513 N502 N551 N552 N502 pmos l=0.9u w=10u
M514 N552 N551 0 0 nmos l=0.9u w=10u
R258 VDD N503 0.001
M515 N503 N552 N553 N503 pmos l=0.9u w=10u
M516 N553 N552 0 0 nmos l=0.9u w=10u
R259 VDD N504 0.001
M517 N504 N553 N554 N504 pmos l=0.9u w=10u
M518 N554 N553 0 0 nmos l=0.9u w=10u
R260 VDD N505 0.001
M519 N505 N554 N555 N505 pmos l=0.9u w=10u
M520 N555 N554 0 0 nmos l=0.9u w=10u
R261 VDD N506 0.001
M521 N506 N555 N556 N506 pmos l=0.9u w=10u
M522 N556 N555 0 0 nmos l=0.9u w=10u
R262 VDD N507 0.001
M523 N507 N556 N557 N507 pmos l=0.9u w=10u
M524 N557 N556 0 0 nmos l=0.9u w=10u
R263 VDD N508 0.001
M525 N508 N557 N558 N508 pmos l=0.9u w=10u
M526 N558 N557 0 0 nmos l=0.9u w=10u
R264 VDD N509 0.001
M527 N509 N558 N559 N509 pmos l=0.9u w=10u
M528 N559 N558 0 0 nmos l=0.9u w=10u
R265 VDD N510 0.001
M529 N510 N559 N560 N510 pmos l=0.9u w=10u
M530 N560 N559 0 0 nmos l=0.9u w=10u
R266 VDD N511 0.001
M531 N511 N560 N561 N511 pmos l=0.9u w=10u
M532 N561 N560 0 0 nmos l=0.9u w=10u
R267 VDD N512 0.001
M533 N512 N561 N562 N512 pmos l=0.9u w=10u
M534 N562 N561 0 0 nmos l=0.9u w=10u
R268 VDD N513 0.001
M535 N513 N562 N563 N513 pmos l=0.9u w=10u
M536 N563 N562 0 0 nmos l=0.9u w=10u
R269 VDD N514 0.001
M537 N514 N563 N564 N514 pmos l=0.9u w=10u
M538 N564 N563 0 0 nmos l=0.9u w=10u
R270 VDD N515 0.001
M539 N515 N564 N565 N515 pmos l=0.9u w=10u
M540 N565 N564 0 0 nmos l=0.9u w=10u
R271 VDD N516 0.001
M541 N516 N565 N566 N516 pmos l=0.9u w=10u
M542 N566 N565 0 0 nmos l=0.9u w=10u
R272 VDD N517 0.001
M543 N517 N566 N567 N517 pmos l=0.9u w=10u
M544 N567 N566 0 0 nmos l=0.9u w=10u
R273 VDD N518 0.001
M545 N518 N567 N568 N518 pmos l=0.9u w=10u
M546 N568 N567 0 0 nmos l=0.9u w=10u
R274 VDD N519 0.001
M547 N519 N568 N569 N519 pmos l=0.9u w=10u
M548 N569 N568 0 0 nmos l=0.9u w=10u
R275 VDD N520 0.001
M549 N520 N569 N570 N520 pmos l=0.9u w=10u
M550 N570 N569 0 0 nmos l=0.9u w=10u
R276 VDD N521 0.001
M551 N521 N570 N571 N521 pmos l=0.9u w=10u
M552 N571 N570 0 0 nmos l=0.9u w=10u
R277 VDD N522 0.001
M553 N522 N571 N572 N522 pmos l=0.9u w=10u
M554 N572 N571 0 0 nmos l=0.9u w=10u
R278 VDD N523 0.001
M555 N523 N572 N573 N523 pmos l=0.9u w=10u
M556 N573 N572 0 0 nmos l=0.9u w=10u
R279 VDD N524 0.001
M557 N524 N573 N574 N524 pmos l=0.9u w=10u
M558 N574 N573 0 0 nmos l=0.9u w=10u
R280 VDD N525 0.001
M559 N525 N574 N575 N525 pmos l=0.9u w=10u
M560 N575 N574 0 0 nmos l=0.9u w=10u
R281 VDD N526 0.001
M561 N526 N575 N576 N526 pmos l=0.9u w=10u
M562 N576 N575 0 0 nmos l=0.9u w=10u
R282 VDD N527 0.001
M563 N527 N576 N577 N527 pmos l=0.9u w=10u
M564 N577 N576 0 0 nmos l=0.9u w=10u
R283 VDD N528 0.001
M565 N528 N577 N578 N528 pmos l=0.9u w=10u
M566 N578 N577 0 0 nmos l=0.9u w=10u
R284 VDD N529 0.001
M567 N529 N578 N579 N529 pmos l=0.9u w=10u
M568 N579 N578 0 0 nmos l=0.9u w=10u
R285 VDD N530 0.001
M569 N530 N579 N580 N530 pmos l=0.9u w=10u
M570 N580 N579 0 0 nmos l=0.9u w=10u
R286 VDD N531 0.001
M571 N531 N580 N581 N531 pmos l=0.9u w=10u
M572 N581 N580 0 0 nmos l=0.9u w=10u
R287 VDD N532 0.001
M573 N532 N581 N582 N532 pmos l=0.9u w=10u
M574 N582 N581 0 0 nmos l=0.9u w=10u
R288 VDD N533 0.001
M575 N533 N582 N583 N533 pmos l=0.9u w=10u
M576 N583 N582 0 0 nmos l=0.9u w=10u
R289 VDD N534 0.001
M577 N534 N583 N584 N534 pmos l=0.9u w=10u
M578 N584 N583 0 0 nmos l=0.9u w=10u
R290 VDD N535 0.001
M579 N535 N584 N585 N535 pmos l=0.9u w=10u
M580 N585 N584 0 0 nmos l=0.9u w=10u
R291 VDD N536 0.001
M581 N536 N585 N586 N536 pmos l=0.9u w=10u
M582 N586 N585 0 0 nmos l=0.9u w=10u
R292 VDD N537 0.001