netlist

* t1_pulse >> v1 >> v2 >> td >> tr >> tf >> pw >> per
V1 1 0 pulse 0 0 5 0 1e-5 1e-5 1e-2 2e-2
R1 1 2 100k
C1 2 0 1e-9

.tran 1e-6 2e-2